<?xml version="1.0" encoding="UTF-8"?>

<!-- generated on 2025-03-13 23:15:34 by Eclipse SUMO sumo Version 1.22.0
-->

<sumoConfiguration xmlns:xsi="http://www.w3.org/2001/XMLSchema-instance" xsi:noNamespaceSchemaLocation="http://sumo.dlr.de/xsd/sumoConfiguration.xsd">

    <input>
        <net-file value="grid1x1.net.xml"/>
        <route-files value="grid1x1.rou.xml"/>
    </input>

</sumoConfiguration>
