<?xml version="1.0" encoding="UTF-8"?>

<!-- generated on 2025-03-13 23:15:02 by Eclipse SUMO netedit Version 1.22.0
<neteditConfiguration xmlns:xsi="http://www.w3.org/2001/XMLSchema-instance" xsi:noNamespaceSchemaLocation="http://sumo.dlr.de/xsd/neteditConfiguration.xsd">

    <input>
        <sumo-net-file value="F:\Programs\eclipse\Sumo\workspace\grid1x1\grid1x1.net.xml"/>
    </input>

    <output>
        <output-file value="F:\Programs\eclipse\Sumo\workspace\grid1x1\grid1x1.net.xml"/>
    </output>

    <processing>
        <offset.disable-normalization value="true"/>
    </processing>

    <junctions>
        <no-turnarounds value="true"/>
    </junctions>

    <netedit>
        <new-network value="false"/>
    </netedit>

</neteditConfiguration>
-->

<net version="1.20" junctionCornerDetail="5" limitTurnSpeed="5.50" xmlns:xsi="http://www.w3.org/2001/XMLSchema-instance" xsi:noNamespaceSchemaLocation="http://sumo.dlr.de/xsd/net_file.xsd">

    <location netOffset="0.00,0.00" convBoundary="0.00,-100.00,100.00,0.00" origBoundary="10000000000.00,10000000000.00,-10000000000.00,-10000000000.00" projParameter="!"/>

    <edge id=":J0_0" function="internal">
        <lane id=":J0_0_0" index="0" speed="8.96" length="18.06" shape="6.40,4.80 1.50,4.10 -2.00,2.00 -4.10,-1.50 -4.80,-6.40"/>
        <lane id=":J0_0_1" index="1" speed="7.66" length="12.90" shape="6.40,1.60 2.90,1.10 0.40,-0.40 -1.10,-2.90 -1.60,-6.40"/>
    </edge>
    <edge id=":J0_2" function="internal">
        <lane id=":J0_2_0" index="0" speed="3.90" length="2.58" shape="4.80,-6.40 4.90,-5.70 5.20,-5.20 5.70,-4.90 6.40,-4.80"/>
        <lane id=":J0_2_1" index="1" speed="6.08" length="7.74" shape="1.60,-6.40 1.90,-4.30 2.80,-2.80 4.30,-1.90 6.40,-1.60"/>
    </edge>
    <edge id=":J1_0" function="internal">
        <lane id=":J1_0_0" index="0" speed="8.96" length="18.06" shape="-4.80,-93.60 -4.10,-98.50 -2.00,-102.00 1.50,-104.10 6.40,-104.80"/>
        <lane id=":J1_0_1" index="1" speed="7.66" length="12.90" shape="-1.60,-93.60 -1.10,-97.10 0.40,-99.60 2.90,-101.10 6.40,-101.60"/>
    </edge>
    <edge id=":J1_2" function="internal">
        <lane id=":J1_2_0" index="0" speed="3.90" length="2.58" shape="6.40,-95.20 5.70,-95.10 5.20,-94.80 4.90,-94.30 4.80,-93.60"/>
        <lane id=":J1_2_1" index="1" speed="6.08" length="7.74" shape="6.40,-98.40 4.30,-98.10 2.80,-97.20 1.90,-95.70 1.60,-93.60"/>
    </edge>
    <edge id=":J2_0" function="internal">
        <lane id=":J2_0_0" index="0" speed="3.90" length="2.58" shape="95.20,-93.60 95.10,-94.30 94.80,-94.80 94.30,-95.10 93.60,-95.20"/>
        <lane id=":J2_0_1" index="1" speed="6.08" length="7.74" shape="98.40,-93.60 98.10,-95.70 97.20,-97.20 95.70,-98.10 93.60,-98.40"/>
    </edge>
    <edge id=":J2_2" function="internal">
        <lane id=":J2_2_0" index="0" speed="8.96" length="18.06" shape="93.60,-104.80 98.50,-104.10 102.00,-102.00 104.10,-98.50 104.80,-93.60"/>
        <lane id=":J2_2_1" index="1" speed="7.66" length="12.90" shape="93.60,-101.60 97.10,-101.10 99.60,-99.60 101.10,-97.10 101.60,-93.60"/>
    </edge>
    <edge id=":J3_0" function="internal">
        <lane id=":J3_0_0" index="0" speed="8.96" length="18.06" shape="104.80,-6.40 104.10,-1.50 102.00,2.00 98.50,4.10 93.60,4.80"/>
        <lane id=":J3_0_1" index="1" speed="7.66" length="12.90" shape="101.60,-6.40 101.10,-2.90 99.60,-0.40 97.10,1.10 93.60,1.60"/>
    </edge>
    <edge id=":J3_2" function="internal">
        <lane id=":J3_2_0" index="0" speed="3.90" length="2.58" shape="93.60,-4.80 94.30,-4.90 94.80,-5.20 95.10,-5.70 95.20,-6.40"/>
        <lane id=":J3_2_1" index="1" speed="6.08" length="7.74" shape="93.60,-1.60 95.70,-1.90 97.20,-2.80 98.10,-4.30 98.40,-6.40"/>
    </edge>

    <edge id="-E0" from="J1" to="J0" priority="-1">
        <lane id="-E0_0" index="0" speed="13.89" length="87.20" shape="4.80,-93.60 4.80,-6.40"/>
        <lane id="-E0_1" index="1" speed="13.89" length="87.20" shape="1.60,-93.60 1.60,-6.40"/>
    </edge>
    <edge id="-E1" from="J2" to="J1" priority="-1">
        <lane id="-E1_0" index="0" speed="13.89" length="87.20" shape="93.60,-95.20 6.40,-95.20"/>
        <lane id="-E1_1" index="1" speed="13.89" length="87.20" shape="93.60,-98.40 6.40,-98.40"/>
    </edge>
    <edge id="-E2" from="J3" to="J2" priority="-1">
        <lane id="-E2_0" index="0" speed="13.89" length="87.20" shape="95.20,-6.40 95.20,-93.60"/>
        <lane id="-E2_1" index="1" speed="13.89" length="87.20" shape="98.40,-6.40 98.40,-93.60"/>
    </edge>
    <edge id="-E3" from="J3" to="J0" priority="-1">
        <lane id="-E3_0" index="0" speed="13.89" length="87.20" shape="93.60,4.80 6.40,4.80"/>
        <lane id="-E3_1" index="1" speed="13.89" length="87.20" shape="93.60,1.60 6.40,1.60"/>
    </edge>
    <edge id="E0" from="J0" to="J1" priority="-1">
        <lane id="E0_0" index="0" speed="13.89" length="87.20" shape="-4.80,-6.40 -4.80,-93.60"/>
        <lane id="E0_1" index="1" speed="13.89" length="87.20" shape="-1.60,-6.40 -1.60,-93.60"/>
    </edge>
    <edge id="E1" from="J1" to="J2" priority="-1">
        <lane id="E1_0" index="0" speed="13.89" length="87.20" shape="6.40,-104.80 93.60,-104.80"/>
        <lane id="E1_1" index="1" speed="13.89" length="87.20" shape="6.40,-101.60 93.60,-101.60"/>
    </edge>
    <edge id="E2" from="J2" to="J3" priority="-1">
        <lane id="E2_0" index="0" speed="13.89" length="87.20" shape="104.80,-93.60 104.80,-6.40"/>
        <lane id="E2_1" index="1" speed="13.89" length="87.20" shape="101.60,-93.60 101.60,-6.40"/>
    </edge>
    <edge id="E3" from="J0" to="J3" priority="-1">
        <lane id="E3_0" index="0" speed="13.89" length="87.20" shape="6.40,-4.80 93.60,-4.80"/>
        <lane id="E3_1" index="1" speed="13.89" length="87.20" shape="6.40,-1.60 93.60,-1.60"/>
    </edge>

    <junction id="J0" type="priority" x="0.00" y="0.00" incLanes="-E3_0 -E3_1 -E0_0 -E0_1" intLanes=":J0_0_0 :J0_0_1 :J0_2_0 :J0_2_1" shape="6.40,6.40 6.40,-6.40 -6.40,-6.40 -6.04,-2.49 -4.98,0.71 -3.20,3.20 -0.71,4.98 2.49,6.04">
        <request index="0" response="0000" foes="0000" cont="0"/>
        <request index="1" response="0000" foes="0000" cont="0"/>
        <request index="2" response="0000" foes="0000" cont="0"/>
        <request index="3" response="0000" foes="0000" cont="0"/>
    </junction>
    <junction id="J1" type="priority" x="0.00" y="-100.00" incLanes="E0_0 E0_1 -E1_0 -E1_1" intLanes=":J1_0_0 :J1_0_1 :J1_2_0 :J1_2_1" shape="-6.40,-93.60 6.40,-93.60 6.40,-106.40 2.49,-106.04 -0.71,-104.98 -3.20,-103.20 -4.98,-100.71 -6.04,-97.51">
        <request index="0" response="0000" foes="0000" cont="0"/>
        <request index="1" response="0000" foes="0000" cont="0"/>
        <request index="2" response="0000" foes="0000" cont="0"/>
        <request index="3" response="0000" foes="0000" cont="0"/>
    </junction>
    <junction id="J2" type="priority" x="100.00" y="-100.00" incLanes="-E2_0 -E2_1 E1_0 E1_1" intLanes=":J2_0_0 :J2_0_1 :J2_2_0 :J2_2_1" shape="93.60,-93.60 106.40,-93.60 106.04,-97.51 104.98,-100.71 103.20,-103.20 100.71,-104.98 97.51,-106.04 93.60,-106.40">
        <request index="0" response="0000" foes="0000" cont="0"/>
        <request index="1" response="0000" foes="0000" cont="0"/>
        <request index="2" response="0000" foes="0000" cont="0"/>
        <request index="3" response="0000" foes="0000" cont="0"/>
    </junction>
    <junction id="J3" type="priority" x="100.00" y="0.00" incLanes="E2_0 E2_1 E3_0 E3_1" intLanes=":J3_0_0 :J3_0_1 :J3_2_0 :J3_2_1" shape="106.40,-6.40 93.60,-6.40 93.60,6.40 97.51,6.04 100.71,4.98 103.20,3.20 104.98,0.71 106.04,-2.49">
        <request index="0" response="0000" foes="0000" cont="0"/>
        <request index="1" response="0000" foes="0000" cont="0"/>
        <request index="2" response="0000" foes="0000" cont="0"/>
        <request index="3" response="0000" foes="0000" cont="0"/>
    </junction>

    <connection from="-E0" to="E3" fromLane="0" toLane="0" via=":J0_2_0" dir="r" state="M"/>
    <connection from="-E0" to="E3" fromLane="1" toLane="1" via=":J0_2_1" dir="r" state="M"/>
    <connection from="-E1" to="-E0" fromLane="0" toLane="0" via=":J1_2_0" dir="r" state="M"/>
    <connection from="-E1" to="-E0" fromLane="1" toLane="1" via=":J1_2_1" dir="r" state="M"/>
    <connection from="-E2" to="-E1" fromLane="0" toLane="0" via=":J2_0_0" dir="r" state="M"/>
    <connection from="-E2" to="-E1" fromLane="1" toLane="1" via=":J2_0_1" dir="r" state="M"/>
    <connection from="-E3" to="E0" fromLane="0" toLane="0" via=":J0_0_0" dir="l" state="M"/>
    <connection from="-E3" to="E0" fromLane="1" toLane="1" via=":J0_0_1" dir="l" state="M"/>
    <connection from="E0" to="E1" fromLane="0" toLane="0" via=":J1_0_0" dir="l" state="M"/>
    <connection from="E0" to="E1" fromLane="1" toLane="1" via=":J1_0_1" dir="l" state="M"/>
    <connection from="E1" to="E2" fromLane="0" toLane="0" via=":J2_2_0" dir="l" state="M"/>
    <connection from="E1" to="E2" fromLane="1" toLane="1" via=":J2_2_1" dir="l" state="M"/>
    <connection from="E2" to="-E3" fromLane="0" toLane="0" via=":J3_0_0" dir="l" state="M"/>
    <connection from="E2" to="-E3" fromLane="1" toLane="1" via=":J3_0_1" dir="l" state="M"/>
    <connection from="E3" to="-E2" fromLane="0" toLane="0" via=":J3_2_0" dir="r" state="M"/>
    <connection from="E3" to="-E2" fromLane="1" toLane="1" via=":J3_2_1" dir="r" state="M"/>

    <connection from=":J0_0" to="E0" fromLane="0" toLane="0" dir="l" state="M"/>
    <connection from=":J0_0" to="E0" fromLane="1" toLane="1" dir="l" state="M"/>
    <connection from=":J0_2" to="E3" fromLane="0" toLane="0" dir="r" state="M"/>
    <connection from=":J0_2" to="E3" fromLane="1" toLane="1" dir="r" state="M"/>
    <connection from=":J1_0" to="E1" fromLane="0" toLane="0" dir="l" state="M"/>
    <connection from=":J1_0" to="E1" fromLane="1" toLane="1" dir="l" state="M"/>
    <connection from=":J1_2" to="-E0" fromLane="0" toLane="0" dir="r" state="M"/>
    <connection from=":J1_2" to="-E0" fromLane="1" toLane="1" dir="r" state="M"/>
    <connection from=":J2_0" to="-E1" fromLane="0" toLane="0" dir="r" state="M"/>
    <connection from=":J2_0" to="-E1" fromLane="1" toLane="1" dir="r" state="M"/>
    <connection from=":J2_2" to="E2" fromLane="0" toLane="0" dir="l" state="M"/>
    <connection from=":J2_2" to="E2" fromLane="1" toLane="1" dir="l" state="M"/>
    <connection from=":J3_0" to="-E3" fromLane="0" toLane="0" dir="l" state="M"/>
    <connection from=":J3_0" to="-E3" fromLane="1" toLane="1" dir="l" state="M"/>
    <connection from=":J3_2" to="-E2" fromLane="0" toLane="0" dir="r" state="M"/>
    <connection from=":J3_2" to="-E2" fromLane="1" toLane="1" dir="r" state="M"/>

</net>
