<?xml version="1.0" encoding="UTF-8"?>

<!-- generated on 2025-03-13 23:15:34 by Eclipse SUMO netedit Version 1.22.0
-->

<routes xmlns:xsi="http://www.w3.org/2001/XMLSchema-instance" xsi:noNamespaceSchemaLocation="http://sumo.dlr.de/xsd/routes_file.xsd">
    <!-- Vehicles, persons and containers (sorted by depart) -->
    <flow id="f_0" begin="0.00" from="-E0" to="-E0" via="E3 -E2 -E1" end="1200.00" vehsPerHour="1000"/>
    <flow id="f_1" begin="0.00" color="0,128,0" from="-E0" to="-E0" via="E3 -E2 -E1" end="1200.00" vehsPerHour="1000"/>
    <flow id="f_2" begin="0.00" color="red" from="E1" to="E2" via="E0 -E3" end="1200.00" vehsPerHour="1000"/>
</routes>
