<?xml version="1.0" encoding="UTF-8"?>

<!-- generated on 2025-05-10 16:39:53 by Eclipse SUMO netedit Version 1.22.0
<neteditConfiguration xmlns:xsi="http://www.w3.org/2001/XMLSchema-instance" xsi:noNamespaceSchemaLocation="http://sumo.dlr.de/xsd/neteditConfiguration.xsd">

    <input>
        <sumocfg-file value="F:\Programs\eclipse\Sumo\workspace\fun-shapes\fun-shapes.sumocfg"/>
        <additional-files value=""/>
        <route-files value="F:\Programs\eclipse\Sumo\workspace\fun-shapes\fun-shapes.rou.xml"/>
        <sumo-net-file value="F:\Programs\eclipse\Sumo\workspace\fun-shapes\fun-shapes.net.xml"/>
    </input>

    <output>
        <output-file value="F:\Programs\eclipse\Sumo\workspace\fun-shapes\fun-shapes.net.xml"/>
    </output>

    <processing>
        <geometry.min-radius.fix.railways value="false"/>
        <geometry.max-grade.fix value="false"/>
        <offset.disable-normalization value="true"/>
        <lefthand value="0"/>
    </processing>

    <junctions>
        <no-internal-links value="false"/>
        <no-turnarounds value="true"/>
        <junctions.corner-detail value="5"/>
        <junctions.limit-turn-speed value="5.50"/>
        <rectangular-lane-cut value="0"/>
    </junctions>

    <pedestrian>
        <walkingareas value="0"/>
    </pedestrian>

</neteditConfiguration>
-->

<net version="1.20" junctionCornerDetail="5" limitTurnSpeed="5.50" xmlns:xsi="http://www.w3.org/2001/XMLSchema-instance" xsi:noNamespaceSchemaLocation="http://sumo.dlr.de/xsd/net_file.xsd">

    <location netOffset="0.00,0.00" convBoundary="-345.17,-367.33,3632.69,1465.25" origBoundary="-10000000000.00,-10000000000.00,10000000000.00,10000000000.00" projParameter="!"/>

    <edge id=":J0_0" function="internal">
        <lane id=":J0_0_0" index="0" disallow="pedestrian" speed="8.49" length="15.30" shape="317.36,-58.30 312.12,-60.29 308.02,-61.03 305.06,-60.52 303.23,-58.78"/>
    </edge>
    <edge id=":J0_1" function="internal">
        <lane id=":J0_1_0" index="0" disallow="pedestrian" speed="7.99" length="22.44" shape="317.36,-58.30 311.23,-61.95 309.23,-65.51 311.36,-68.99 317.64,-72.38"/>
    </edge>
    <edge id=":J0_2" function="internal">
        <lane id=":J0_2_0" index="0" disallow="pedestrian" speed="6.24" length="1.31" shape="318.83,-69.41 317.68,-68.79"/>
    </edge>
    <edge id=":J0_3" function="internal">
        <lane id=":J0_3_0" index="0" disallow="pedestrian" speed="13.89" length="19.61" shape="318.83,-69.41 313.32,-67.44 309.41,-65.90 306.31,-63.46 303.23,-58.78"/>
    </edge>
    <edge id=":J0_6" function="internal">
        <lane id=":J0_6_0" index="0" disallow="pedestrian" speed="6.24" length="11.75" shape="317.68,-68.79 315.18,-67.44 313.94,-65.41 315.10,-63.34 318.67,-61.22"/>
    </edge>
    <edge id=":J0_4" function="internal">
        <lane id=":J0_4_0" index="0" disallow="pedestrian" speed="13.89" length="21.79" shape="300.41,-60.28 303.77,-65.37 307.30,-68.24 311.69,-70.16 317.64,-72.38"/>
    </edge>
    <edge id=":J0_5" function="internal">
        <lane id=":J0_5_0" index="0" disallow="pedestrian" speed="9.66" length="3.85" shape="300.41,-60.28 303.02,-63.11"/>
    </edge>
    <edge id=":J0_7" function="internal">
        <lane id=":J0_7_0" index="0" disallow="pedestrian" speed="9.66" length="16.25" shape="303.02,-63.11 306.93,-64.21 312.15,-63.58 318.67,-61.22"/>
    </edge>
    <edge id=":J0_c0" function="crossing" crossingEdges="E0 -E0">
        <lane id=":J0_c0_0" index="0" allow="pedestrian" speed="2.78" length="6.40" width="4.00" shape="317.50,-63.50 314.88,-57.66" outlineShape="319.33,-62.68 316.70,-56.85 316.66,-56.75 313.52,-58.16 312.99,-58.33 313.06,-58.48 315.68,-64.32 316.60,-66.10 316.30,-65.37 316.62,-64.49 317.63,-63.59"/>
    </edge>
    <edge id=":J0_c1" function="crossing" crossingEdges="-E9 E9">
        <lane id=":J0_c1_0" index="0" allow="pedestrian" speed="2.78" length="6.40" width="4.00" shape="315.19,-73.12 317.57,-67.18" outlineShape="317.04,-73.87 319.43,-67.93 319.47,-67.84 319.43,-67.93 317.70,-67.09 316.66,-66.24 316.30,-65.37 316.57,-64.62 315.72,-66.44 313.33,-72.37"/>
    </edge>
    <edge id=":J0_c2" function="crossing" crossingEdges="E23 -E23">
        <lane id=":J0_c2_0" index="0" allow="pedestrian" speed="2.78" length="6.40" width="4.00" shape="305.58,-59.79 299.93,-62.79" outlineShape="304.64,-58.03 298.99,-61.03 299.36,-65.36 297.23,-61.97 298.90,-61.07 300.87,-64.56 306.52,-61.56 308.30,-59.44 306.79,-59.41 305.48,-58.94"/>
    </edge>
    <edge id=":J0_w0" function="walkingarea">
        <lane id=":J0_w0_0" index="0" allow="pedestrian" speed="2.78" length="7.61" width="4.00" shape="304.64,-58.03 306.41,-57.09 315.89,-55.02 316.70,-56.85 313.52,-58.16 310.81,-59.02 308.57,-59.44 306.79,-59.41 305.48,-58.94"/>
    </edge>
    <edge id=":J0_w1" function="walkingarea">
        <lane id=":J0_w1_0" index="0" allow="pedestrian" speed="2.78" length="3.32" width="4.00" shape="319.33,-62.68 320.15,-64.51 320.18,-66.07 319.43,-67.93 317.70,-67.09 316.66,-66.24 316.30,-65.37 316.62,-64.49 317.63,-63.59"/>
    </edge>
    <edge id=":J0_w2" function="walkingarea">
        <lane id=":J0_w2_0" index="0" allow="pedestrian" speed="2.78" length="14.50" width="4.00" shape="317.04,-73.87 316.29,-75.72 311.99,-74.02 308.27,-72.46 305.04,-70.76 302.19,-68.63 299.62,-65.79 297.23,-61.97 298.99,-61.03 301.42,-65.09 303.70,-67.78 306.11,-69.57 308.95,-70.87 312.50,-72.16"/>
    </edge>
    <edge id=":J1_0" function="internal">
        <lane id=":J1_0_0" index="0" disallow="pedestrian" speed="5.63" length="3.44" shape="339.45,-46.72 339.19,-47.57 338.76,-48.28 338.16,-48.86 337.39,-49.31"/>
    </edge>
    <edge id=":J1_1" function="internal">
        <lane id=":J1_1_0" index="0" disallow="pedestrian" speed="7.48" length="6.49" shape="338.70,-52.23 340.15,-51.39 341.28,-50.29 342.09,-48.94 342.59,-47.35"/>
    </edge>
    <edge id=":J1_c0" function="crossing" crossingEdges="-E1 E1">
        <lane id=":J1_c0_0" index="0" allow="pedestrian" speed="2.78" length="6.40" width="4.00" shape="343.77,-49.62 337.49,-48.38" outlineShape="344.16,-47.66 337.88,-46.41 336.74,-47.85 335.92,-46.03 337.88,-46.41 337.11,-50.34 343.38,-51.58 344.60,-51.82 344.12,-52.55 343.02,-53.71 341.71,-54.70 340.18,-55.51 339.36,-53.69 340.59,-53.03 341.65,-52.23 342.54,-51.29 343.25,-50.22 343.79,-49.01"/>
    </edge>
    <edge id=":J1_w0" function="walkingarea">
        <lane id=":J1_w0_0" index="0" allow="pedestrian" speed="2.78" length="1.67" width="4.00" shape="336.74,-47.85 335.92,-46.03 337.88,-46.41 337.79,-46.74 337.67,-47.02 337.50,-47.28 337.28,-47.50 337.03,-47.69"/>
    </edge>
    <edge id=":J1_w1" function="walkingarea">
        <lane id=":J1_w1_0" index="0" allow="pedestrian" speed="2.78" length="5.75" width="4.00" shape="344.16,-47.66 346.12,-48.04 345.67,-49.72 345.00,-51.22 344.12,-52.55 343.02,-53.71 341.71,-54.70 340.18,-55.51 339.36,-53.69 340.59,-53.03 341.65,-52.23 342.54,-51.29 343.25,-50.22 343.79,-49.01"/>
    </edge>
    <edge id=":J10_0" function="internal">
        <lane id=":J10_0_0" index="0" disallow="pedestrian" speed="7.68" length="19.92" shape="385.61,52.88 384.23,49.04 381.36,48.28 377.02,50.61 371.20,56.03"/>
    </edge>
    <edge id=":J10_1" function="internal">
        <lane id=":J10_1_0" index="0" disallow="pedestrian" speed="9.85" length="25.44" shape="385.61,52.88 383.75,47.93 379.63,45.33 373.24,45.05 364.59,47.12"/>
    </edge>
    <edge id=":J10_2" function="internal">
        <lane id=":J10_2_0" index="0" disallow="pedestrian" speed="13.89" length="23.57" shape="385.61,52.88 384.74,46.40 383.51,41.23 381.35,36.45 377.66,31.13"/>
    </edge>
    <edge id=":J10_3" function="internal">
        <lane id=":J10_3_0" index="0" disallow="pedestrian" speed="13.89" length="25.28" shape="385.61,52.88 384.97,46.11 385.02,40.21 386.05,34.45 388.34,28.12"/>
    </edge>
    <edge id=":J10_4" function="internal">
        <lane id=":J10_4_0" index="0" disallow="pedestrian" speed="7.99" length="22.49" shape="385.61,52.88 385.57,45.72 387.60,42.17 391.68,42.23 397.83,45.89"/>
    </edge>
    <edge id=":J10_5" function="internal">
        <lane id=":J10_5_0" index="0" disallow="pedestrian" speed="6.25" length="1.32" shape="395.89,48.44 394.76,47.76"/>
    </edge>
    <edge id=":J10_6" function="internal">
        <lane id=":J10_6_0" index="0" disallow="pedestrian" speed="11.59" length="24.42" shape="395.89,48.44 390.52,46.00 384.62,46.45 378.17,49.79 374.19,53.35"/>
    </edge>
    <edge id=":J10_7" function="internal">
        <lane id=":J10_7_0" index="0" disallow="pedestrian" speed="13.89" length="28.51" shape="395.89,48.44 389.93,45.31 382.73,44.04 374.28,44.65 368.48,46.13"/>
    </edge>
    <edge id=":J10_8" function="internal">
        <lane id=":J10_8_0" index="0" disallow="pedestrian" speed="13.89" length="25.22" shape="395.89,48.44 390.56,44.28 386.11,40.46 382.00,36.30 377.66,31.13"/>
    </edge>
    <edge id=":J10_9" function="internal">
        <lane id=":J10_9_0" index="0" disallow="pedestrian" speed="11.19" length="7.01" shape="395.89,48.44 390.79,43.64"/>
    </edge>
    <edge id=":J10_30" function="internal">
        <lane id=":J10_30_0" index="0" disallow="pedestrian" speed="6.25" length="11.76" shape="394.76,47.76 392.32,46.31 389.94,46.28 388.76,48.34 388.78,52.50"/>
    </edge>
    <edge id=":J10_31" function="internal">
        <lane id=":J10_31_0" index="0" disallow="pedestrian" speed="11.59" length="4.01" shape="374.19,53.35 371.20,56.03"/>
    </edge>
    <edge id=":J10_32" function="internal">
        <lane id=":J10_32_0" index="0" disallow="pedestrian" speed="13.89" length="4.01" shape="368.48,46.13 364.59,47.12"/>
    </edge>
    <edge id=":J10_33" function="internal">
        <lane id=":J10_33_0" index="0" disallow="pedestrian" speed="11.19" length="16.56" shape="390.79,43.64 387.83,38.65 387.01,33.48 388.34,28.12"/>
    </edge>
    <edge id=":J10_10" function="internal">
        <lane id=":J10_10_0" index="0" disallow="pedestrian" speed="10.15" length="19.26" shape="391.27,29.41 390.26,33.67 391.02,37.83 393.54,41.91 397.83,45.89"/>
    </edge>
    <edge id=":J10_11" function="internal">
        <lane id=":J10_11_0" index="0" disallow="pedestrian" speed="13.89" length="23.62" shape="391.27,29.41 389.02,35.48 388.07,40.66 388.11,45.99 388.78,52.50"/>
    </edge>
    <edge id=":J10_12" function="internal">
        <lane id=":J10_12_0" index="0" disallow="pedestrian" speed="13.89" length="33.47" shape="391.27,29.41 387.40,36.41 382.30,43.42 376.66,50.09 371.20,56.03"/>
    </edge>
    <edge id=":J10_13" function="internal">
        <lane id=":J10_13_0" index="0" disallow="pedestrian" speed="13.89" length="32.80" shape="391.27,29.41 387.89,34.42 382.31,39.04 374.55,43.27 364.59,47.12"/>
    </edge>
    <edge id=":J10_14" function="internal">
        <lane id=":J10_14_0" index="0" disallow="pedestrian" speed="7.79" length="18.41" shape="391.27,29.41 388.41,34.09 385.18,35.94 381.60,34.95 377.66,31.13"/>
    </edge>
    <edge id=":J10_15" function="internal">
        <lane id=":J10_15_0" index="0" disallow="pedestrian" speed="6.18" length="6.84" shape="380.18,29.15 382.54,31.44 384.69,32.04 385.83,31.38"/>
    </edge>
    <edge id=":J10_16" function="internal">
        <lane id=":J10_16_0" index="0" disallow="pedestrian" speed="13.89" length="24.42" shape="380.18,29.15 384.42,34.23 388.34,38.20 392.59,41.83 397.83,45.89"/>
    </edge>
    <edge id=":J10_17" function="internal">
        <lane id=":J10_17_0" index="0" disallow="pedestrian" speed="13.89" length="6.73" shape="380.18,29.15 383.96,34.72"/>
    </edge>
    <edge id=":J10_18" function="internal">
        <lane id=":J10_18_0" index="0" disallow="pedestrian" speed="12.24" length="2.53" shape="380.18,29.15 381.17,31.48"/>
    </edge>
    <edge id=":J10_19" function="internal">
        <lane id=":J10_19_0" index="0" disallow="pedestrian" speed="9.95" length="2.22" shape="380.18,29.15 380.95,31.24"/>
    </edge>
    <edge id=":J10_34" function="internal">
        <lane id=":J10_34_0" index="0" disallow="pedestrian" speed="6.18" length="4.21" shape="385.83,31.38 386.62,30.93 388.34,28.12"/>
    </edge>
    <edge id=":J10_35" function="internal">
        <lane id=":J10_35_0" index="0" disallow="pedestrian" speed="13.89" length="18.55" shape="383.96,34.72 386.36,40.05 387.81,45.77 388.78,52.50"/>
    </edge>
    <edge id=":J10_36" function="internal">
        <lane id=":J10_36_0" index="0" disallow="pedestrian" speed="12.24" length="28.15" shape="381.17,31.48 382.41,34.38 381.65,40.60 377.92,47.82 371.20,56.03"/>
    </edge>
    <edge id=":J10_37" function="internal">
        <lane id=":J10_37_0" index="0" disallow="pedestrian" speed="9.95" length="26.27" shape="380.95,31.24 382.32,34.95 379.59,39.76 373.26,43.75 364.59,47.12"/>
    </edge>
    <edge id=":J10_20" function="internal">
        <lane id=":J10_20_0" index="0" disallow="pedestrian" speed="8.79" length="21.95" shape="363.59,44.08 371.69,40.89 376.73,37.66 378.72,34.41 377.66,31.13"/>
    </edge>
    <edge id=":J10_21" function="internal">
        <lane id=":J10_21_0" index="0" disallow="pedestrian" speed="13.89" length="30.14" shape="363.59,44.08 372.92,40.51 380.15,36.66 385.29,32.53 388.34,28.12"/>
    </edge>
    <edge id=":J10_22" function="internal">
        <lane id=":J10_22_0" index="0" disallow="pedestrian" speed="13.89" length="35.61" shape="363.59,44.08 374.06,41.44 383.26,40.86 391.18,42.35 397.83,45.89"/>
    </edge>
    <edge id=":J10_23" function="internal">
        <lane id=":J10_23_0" index="0" disallow="pedestrian" speed="10.99" length="31.93" shape="363.59,44.08 373.21,41.55 380.84,41.52 386.14,44.87 388.78,52.50"/>
    </edge>
    <edge id=":J10_24" function="internal">
        <lane id=":J10_24_0" index="0" disallow="pedestrian" speed="7.00" length="19.31" shape="363.59,44.08 368.69,44.10 372.22,46.98 373.34,51.40 371.20,56.03"/>
    </edge>
    <edge id=":J10_25" function="internal">
        <lane id=":J10_25_0" index="0" disallow="pedestrian" speed="6.79" length="18.05" shape="368.87,53.83 372.78,48.99 373.37,46.25 370.64,45.63 364.59,47.12"/>
    </edge>
    <edge id=":J10_26" function="internal">
        <lane id=":J10_26_0" index="0" disallow="pedestrian" speed="11.33" length="26.16" shape="368.87,53.83 374.87,46.64 378.33,40.45 379.26,35.29 377.66,31.13"/>
    </edge>
    <edge id=":J10_27" function="internal">
        <lane id=":J10_27_0" index="0" disallow="pedestrian" speed="13.89" length="32.39" shape="368.87,53.83 374.24,48.03 379.67,41.68 384.56,34.98 388.34,28.12"/>
    </edge>
    <edge id=":J10_28" function="internal">
        <lane id=":J10_28_0" index="0" disallow="pedestrian" speed="12.49" length="33.17" shape="368.87,53.83 376.85,46.79 384.34,43.12 391.34,42.82 397.83,45.89"/>
    </edge>
    <edge id=":J10_29" function="internal">
        <lane id=":J10_29_0" index="0" disallow="pedestrian" speed="8.70" length="25.98" shape="368.87,53.83 375.01,48.67 381.19,46.01 386.19,46.93 388.78,52.50"/>
    </edge>
    <edge id=":J10_c0" function="crossing" crossingEdges="-E71 E71">
        <lane id=":J10_c0_0" index="0" allow="pedestrian" speed="2.78" length="6.40" width="4.00" shape="390.14,50.33 383.78,51.08" outlineShape="390.37,52.31 384.02,53.07 383.45,51.13 382.33,50.24 381.65,50.31 383.54,49.10 389.90,48.34 391.90,48.21 391.11,48.33 390.53,49.06 390.28,50.39"/>
    </edge>
    <edge id=":J10_c1" function="crossing" crossingEdges="-E63 E63">
        <lane id=":J10_c1_0" index="0" allow="pedestrian" speed="2.78" length="6.40" width="4.00" shape="397.21,43.41 393.33,48.50" outlineShape="398.86,44.54 394.92,49.71 393.31,48.65 392.04,48.19 391.11,48.33 390.61,48.95 391.74,47.29 395.62,42.20 395.80,41.96 396.04,42.24"/>
    </edge>
    <edge id=":J10_c2" function="crossing" crossingEdges="-E10 E10">
        <lane id=":J10_c2_0" index="0" allow="pedestrian" speed="2.78" length="6.40" width="4.00" shape="386.07,29.30 391.93,31.88" outlineShape="386.88,27.47 392.74,30.05 391.99,32.53 391.97,34.09 391.12,33.72 385.27,31.13 383.50,29.95 384.44,30.09 385.32,29.72 386.13,28.85"/>
    </edge>
    <edge id=":J10_c3" function="crossing" crossingEdges="-E37 E37">
        <lane id=":J10_c3_0" index="0" allow="pedestrian" speed="2.78" length="6.40" width="4.00" shape="377.64,33.69 382.67,29.73" outlineShape="376.40,32.12 381.43,28.16 382.50,29.31 383.50,29.95 384.44,30.09 385.32,29.72 383.91,31.31 378.88,35.26 376.39,35.63 376.60,35.41 377.08,33.74"/>
    </edge>
    <edge id=":J10_c4" function="crossing" crossingEdges="E38 -E38">
        <lane id=":J10_c4_0" index="0" allow="pedestrian" speed="2.78" length="6.40" width="4.00" shape="367.00,48.01 364.99,41.93" outlineShape="365.10,48.64 363.09,42.56 363.06,42.47 366.85,41.20 366.89,41.31 368.89,47.38 367.49,50.25 367.39,50.06 366.70,49.21 365.90,48.68"/>
    </edge>
    <edge id=":J10_c5" function="crossing" crossingEdges="E11 -E11">
        <lane id=":J10_c5_0" index="0" allow="pedestrian" speed="2.78" length="6.40" width="4.00" shape="373.73,55.67 369.08,51.28" outlineShape="372.36,57.13 367.71,52.74 368.01,51.99 367.87,51.04 367.39,50.06 367.25,49.88 370.45,49.83 375.11,54.22 375.21,54.31"/>
    </edge>
    <edge id=":J10_w0" function="walkingarea">
        <lane id=":J10_w0_0" index="0" allow="pedestrian" speed="2.78" length="8.12" width="4.00" shape="372.36,57.13 373.82,58.50 382.03,53.30 384.02,53.07 383.45,51.13 382.33,50.24 380.67,50.40 378.45,51.60 375.68,53.84"/>
    </edge>
    <edge id=":J10_w1" function="walkingarea">
        <lane id=":J10_w1_0" index="0" allow="pedestrian" speed="2.78" length="3.32" width="4.00" shape="390.37,52.31 392.36,52.08 393.71,51.30 394.92,49.71 393.31,48.65 392.04,48.19 391.11,48.33 390.53,49.06 390.28,50.39"/>
    </edge>
    <edge id=":J10_w2" function="walkingarea">
        <lane id=":J10_w2_0" index="0" allow="pedestrian" speed="2.78" length="9.87" width="4.00" shape="398.80,44.62 400.01,43.03 394.57,30.86 392.74,30.05 391.99,32.53 391.95,34.98 392.61,37.42 393.97,39.84 396.04,42.24"/>
    </edge>
    <edge id=":J10_w3" function="walkingarea">
        <lane id=":J10_w3_0" index="0" allow="pedestrian" speed="2.78" length="3.36" width="4.00" shape="386.88,27.47 385.05,26.67 383.01,26.93 381.43,28.16 382.50,29.31 383.50,29.95 384.44,30.09 385.32,29.72 386.13,28.85"/>
    </edge>
    <edge id=":J10_w4" function="walkingarea">
        <lane id=":J10_w4_0" index="0" allow="pedestrian" speed="2.78" length="11.01" width="4.00" shape="376.40,32.12 374.83,33.36 362.46,40.66 363.09,42.56 368.20,40.70 372.16,38.89 374.96,37.13 376.60,35.41 377.08,33.74"/>
    </edge>
    <edge id=":J10_w5" function="walkingarea">
        <lane id=":J10_w5_0" index="0" allow="pedestrian" speed="2.78" length="3.23" width="4.00" shape="365.10,48.64 365.72,50.54 366.25,51.36 367.71,52.74 368.01,51.99 367.87,51.04 367.39,50.06 366.70,49.21 365.90,48.68"/>
    </edge>
    <edge id=":J100_0" function="internal">
        <lane id=":J100_0_0" index="0" disallow="pedestrian" speed="13.89" length="24.22" shape="0.72,-14.08 -2.89,-19.63 -5.70,-24.40 -7.89,-29.43 -9.65,-35.76"/>
    </edge>
    <edge id=":J100_1" function="internal">
        <lane id=":J100_1_0" index="0" disallow="pedestrian" speed="10.45" length="27.42" shape="0.72,-14.08 -2.32,-20.83 -2.15,-26.78 1.23,-31.93 7.83,-36.27"/>
    </edge>
    <edge id=":J100_2" function="internal">
        <lane id=":J100_2_0" index="0" disallow="pedestrian" speed="7.37" length="19.33" shape="0.72,-14.08 -0.79,-18.97 0.78,-22.97 4.64,-25.33 10.03,-25.29"/>
    </edge>
    <edge id=":J100_3" function="internal">
        <lane id=":J100_3_0" index="0" disallow="pedestrian" speed="6.44" length="14.35" shape="9.25,-22.19 4.41,-22.92 1.82,-22.10 1.49,-19.73 3.41,-15.82"/>
    </edge>
    <edge id=":J100_4" function="internal">
        <lane id=":J100_4_0" index="0" disallow="pedestrian" speed="12.77" length="24.39" shape="9.25,-22.19 1.75,-24.63 -3.90,-27.70 -7.70,-31.41 -9.65,-35.76"/>
    </edge>
    <edge id=":J100_5" function="internal">
        <lane id=":J100_5_0" index="0" disallow="pedestrian" speed="7.21" length="18.89" shape="9.25,-22.19 4.81,-24.72 3.02,-28.67 3.99,-32.90 7.83,-36.27"/>
    </edge>
    <edge id=":J100_6" function="internal">
        <lane id=":J100_6_0" index="0" disallow="pedestrian" speed="6.36" length="1.77" shape="9.21,-33.38 7.71,-32.46"/>
    </edge>
    <edge id=":J100_7" function="internal">
        <lane id=":J100_7_0" index="0" disallow="pedestrian" speed="9.36" length="17.71" shape="9.21,-33.38 3.93,-29.92 1.20,-25.84 1.02,-21.14 1.75,-19.51"/>
    </edge>
    <edge id=":J100_8" function="internal">
        <lane id=":J100_8_0" index="0" disallow="pedestrian" speed="9.16" length="7.93" shape="9.21,-33.38 1.81,-30.55"/>
    </edge>
    <edge id=":J100_16" function="internal">
        <lane id=":J100_16_0" index="0" disallow="pedestrian" speed="6.36" length="12.54" shape="7.71,-32.46 5.22,-30.94 4.03,-28.77 5.63,-26.89 10.03,-25.29"/>
    </edge>
    <edge id=":J100_17" function="internal">
        <lane id=":J100_17_0" index="0" disallow="pedestrian" speed="9.36" length="4.05" shape="1.75,-19.51 3.41,-15.82"/>
    </edge>
    <edge id=":J100_18" function="internal">
        <lane id=":J100_18_0" index="0" disallow="pedestrian" speed="9.16" length="14.34" shape="1.81,-30.55 -3.80,-30.00 -7.62,-31.74 -9.65,-35.76"/>
    </edge>
    <edge id=":J100_9" function="internal">
        <lane id=":J100_9_0" index="0" disallow="pedestrian" speed="7.93" length="16.36" shape="-6.52,-36.45 -5.10,-34.04 -2.23,-33.21 2.08,-33.95 7.83,-36.27"/>
    </edge>
    <edge id=":J100_10" function="internal">
        <lane id=":J100_10_0" index="0" disallow="pedestrian" speed="11.83" length="20.87" shape="-6.52,-36.45 -4.88,-32.98 -1.57,-29.96 3.40,-27.40 10.03,-25.29"/>
    </edge>
    <edge id=":J100_11" function="internal">
        <lane id=":J100_11_0" index="0" disallow="pedestrian" speed="13.89" length="23.08" shape="-6.52,-36.45 -4.83,-30.28 -2.80,-25.62 -0.14,-21.21 3.41,-15.82"/>
    </edge>
    <edge id=":J100_12" function="internal">
        <lane id=":J100_12_0" index="0" disallow="pedestrian" speed="7.38" length="6.77" shape="-13.74,-26.87 -11.37,-28.15 -9.91,-30.06 -9.53,-31.69"/>
    </edge>
    <edge id=":J100_13" function="internal">
        <lane id=":J100_13_0" index="0" disallow="pedestrian" speed="13.89" length="23.54" shape="-13.74,-26.87 -7.64,-29.10 -2.78,-31.16 1.99,-33.43 7.83,-36.27"/>
    </edge>
    <edge id=":J100_14" function="internal">
        <lane id=":J100_14_0" index="0" disallow="pedestrian" speed="13.89" length="13.71" shape="-13.74,-26.87 -7.39,-28.33 -1.94,-28.21 -0.23,-27.84"/>
    </edge>
    <edge id=":J100_15" function="internal">
        <lane id=":J100_15_0" index="0" disallow="pedestrian" speed="10.84" length="15.10" shape="-13.74,-26.87 -9.61,-27.23 -5.38,-25.50 -1.04,-21.70 -0.66,-21.20"/>
    </edge>
    <edge id=":J100_19" function="internal">
        <lane id=":J100_19_0" index="0" disallow="pedestrian" speed="7.38" length="4.11" shape="-9.53,-31.69 -9.33,-32.59 -9.65,-35.76"/>
    </edge>
    <edge id=":J100_20" function="internal">
        <lane id=":J100_20_0" index="0" disallow="pedestrian" speed="13.89" length="10.58" shape="-0.23,-27.84 3.55,-27.02 10.03,-25.29"/>
    </edge>
    <edge id=":J100_21" function="internal">
        <lane id=":J100_21_0" index="0" disallow="pedestrian" speed="10.84" length="6.75" shape="-0.66,-21.20 3.41,-15.82"/>
    </edge>
    <edge id=":J100_c0" function="crossing" crossingEdges="-E166 E166">
        <lane id=":J100_c0_0" index="0" allow="pedestrian" speed="2.78" length="6.40" width="4.00" shape="3.66,-18.37 -1.71,-14.88" outlineShape="4.75,-16.69 -0.62,-13.20 -2.87,-16.51 2.57,-20.05 4.36,-20.88 3.84,-20.65 3.49,-19.78 3.79,-18.45"/>
    </edge>
    <edge id=":J100_c1" function="crossing" crossingEdges="-E160 E160">
        <lane id=":J100_c1_0" index="0" allow="pedestrian" speed="2.78" length="6.40" width="4.00" shape="8.48,-27.33 6.92,-21.12" outlineShape="10.42,-26.84 8.86,-20.63 8.83,-20.54 6.53,-21.08 4.85,-21.09 6.78,-28.79 7.12,-28.22 8.38,-27.49"/>
    </edge>
    <edge id=":J100_c2" function="crossing" crossingEdges="E157 -E157">
        <lane id=":J100_c2_0" index="0" allow="pedestrian" speed="2.78" length="6.40" width="4.00" shape="5.34,-36.84 8.10,-31.07" outlineShape="7.10,-37.80 9.91,-31.94 8.03,-30.89 6.94,-29.92 6.73,-29.31 3.47,-36.12 3.71,-36.20"/>
    </edge>
    <edge id=":J100_c3" function="crossing" crossingEdges="E161 -E161">
        <lane id=":J100_c3_0" index="0" allow="pedestrian" speed="2.78" length="6.40" width="4.00" shape="-10.78,-33.47 -4.53,-34.84" outlineShape="-11.21,-35.42 -4.96,-36.79 -4.35,-35.59 -3.18,-34.93 -2.04,-34.85 -4.10,-32.88 -10.35,-31.51 -11.24,-31.32 -11.01,-32.16 -10.96,-33.68"/>
    </edge>
    <edge id=":J100_w0" function="walkingarea">
        <lane id=":J100_w0_0" index="0" allow="pedestrian" speed="2.78" length="2.24" width="4.00" shape="-2.29,-12.11 -0.62,-13.20 -3.40,-17.28 -5.91,-20.54 -8.15,-22.98 -10.11,-24.59 -11.80,-25.39"/>
    </edge>
    <edge id=":J100_w1" function="walkingarea">
        <lane id=":J100_w1_0" index="0" allow="pedestrian" speed="2.78" length="3.64" width="4.00" shape="4.75,-16.69 6.43,-17.78 8.37,-18.70 8.86,-20.63 6.53,-21.08 4.85,-21.09 3.84,-20.65 3.49,-19.78 3.79,-18.45"/>
    </edge>
    <edge id=":J100_w2" function="walkingarea">
        <lane id=":J100_w2_0" index="0" allow="pedestrian" speed="2.78" length="3.29" width="4.00" shape="10.42,-26.84 10.91,-28.78 10.77,-30.13 9.91,-31.94 8.03,-30.89 6.94,-29.92 6.64,-29.03 7.12,-28.22 8.38,-27.49"/>
    </edge>
    <edge id=":J100_w3" function="walkingarea">
        <lane id=":J100_w3_0" index="0" allow="pedestrian" speed="2.78" length="7.75" width="4.00" shape="7.14,-37.71 6.28,-39.51 -3.01,-37.22 -4.96,-36.79 -4.35,-35.59 -3.18,-34.93 -1.45,-34.81 0.85,-35.23 3.71,-36.20"/>
    </edge>
    <edge id=":J100_w4" function="walkingarea">
        <lane id=":J100_w4_0" index="0" allow="pedestrian" speed="2.78" length="4.73" width="4.00" shape="-11.21,-35.42 -13.16,-34.99 -14.90,-30.28 -14.25,-28.39 -12.98,-28.99 -12.02,-29.82 -11.36,-30.87 -11.01,-32.16 -10.96,-33.68"/>
    </edge>
    <edge id=":J101_0" function="internal">
        <lane id=":J101_0_0" index="0" disallow="pedestrian" speed="13.89" length="32.42" shape="123.16,-59.76 112.48,-67.00 104.19,-71.85 98.28,-74.31 94.77,-74.39"/>
    </edge>
    <edge id=":J101_1" function="internal">
        <lane id=":J101_1_0" index="0" disallow="pedestrian" speed="13.89" length="36.55" shape="123.16,-59.76 115.89,-64.63 107.67,-70.43 100.60,-76.98 96.73,-84.10"/>
    </edge>
    <edge id=":J101_2" function="internal">
        <lane id=":J101_2_0" index="0" disallow="pedestrian" speed="6.85" length="19.46" shape="123.16,-59.76 120.33,-63.95 120.89,-68.59 124.07,-72.02 129.09,-72.56"/>
    </edge>
    <edge id=":J101_3" function="internal">
        <lane id=":J101_3_0" index="0" disallow="pedestrian" speed="7.37" length="2.83" shape="128.30,-69.46 125.52,-70.00"/>
    </edge>
    <edge id=":J101_4" function="internal">
        <lane id=":J101_4_0" index="0" disallow="pedestrian" speed="13.89" length="34.48" shape="128.30,-69.46 120.24,-71.88 111.28,-74.48 102.45,-75.79 94.77,-74.39"/>
    </edge>
    <edge id=":J101_5" function="internal">
        <lane id=":J101_5_0" index="0" disallow="pedestrian" speed="13.89" length="18.71" shape="128.30,-69.46 115.04,-73.26 110.45,-75.02"/>
    </edge>
    <edge id=":J101_12" function="internal">
        <lane id=":J101_12_0" index="0" disallow="pedestrian" speed="7.37" length="20.01" shape="125.52,-70.00 120.31,-71.01 117.10,-70.35 118.67,-67.47 125.01,-62.37"/>
    </edge>
    <edge id=":J101_13" function="internal">
        <lane id=":J101_13_0" index="0" disallow="pedestrian" speed="13.89" length="16.86" shape="110.45,-75.02 105.36,-76.97 99.26,-80.58 96.73,-84.10"/>
    </edge>
    <edge id=":J101_6" function="internal">
        <lane id=":J101_6_0" index="0" disallow="pedestrian" speed="13.89" length="32.19" shape="99.86,-84.76 102.09,-82.13 107.70,-79.22 116.70,-76.03 129.09,-72.56"/>
    </edge>
    <edge id=":J101_7" function="internal">
        <lane id=":J101_7_0" index="0" disallow="pedestrian" speed="13.89" length="34.34" shape="99.86,-84.76 103.53,-77.95 110.16,-72.07 117.94,-66.94 125.01,-62.37"/>
    </edge>
    <edge id=":J101_8" function="internal">
        <lane id=":J101_8_0" index="0" disallow="pedestrian" speed="8.31" length="12.60" shape="99.86,-84.76 100.12,-81.42 99.36,-78.57 97.57,-76.23 94.77,-74.39"/>
    </edge>
    <edge id=":J101_9" function="internal">
        <lane id=":J101_9_0" index="0" disallow="pedestrian" speed="6.85" length="4.00" shape="93.38,-77.28 95.23,-78.49 96.32,-79.92"/>
    </edge>
    <edge id=":J101_10" function="internal">
        <lane id=":J101_10_0" index="0" disallow="pedestrian" speed="13.89" length="36.57" shape="93.38,-77.28 101.41,-78.71 110.99,-77.47 120.69,-74.95 129.09,-72.56"/>
    </edge>
    <edge id=":J101_11" function="internal">
        <lane id=":J101_11_0" index="0" disallow="pedestrian" speed="13.89" length="4.36" shape="93.38,-77.28 97.74,-77.49"/>
    </edge>
    <edge id=":J101_14" function="internal">
        <lane id=":J101_14_0" index="0" disallow="pedestrian" speed="6.85" length="4.28" shape="96.32,-79.92 96.40,-80.03 96.90,-81.90 96.73,-84.10"/>
    </edge>
    <edge id=":J101_15" function="internal">