<?xml version="1.0" encoding="UTF-8"?>

<!-- generated on 2025-03-22 21:31:11 by Eclipse SUMO netedit Version 1.22.0
<neteditConfiguration xmlns:xsi="http://www.w3.org/2001/XMLSchema-instance" xsi:noNamespaceSchemaLocation="http://sumo.dlr.de/xsd/neteditConfiguration.xsd">

    <input>
        <sumo-net-file value="F:\Programs\eclipse\Sumo\workspace\grid3x3\grid3x3.net.xml"/>
    </input>

    <output>
        <output-file value="F:\Programs\eclipse\Sumo\workspace\grid3x3\grid3x3.net.xml"/>
    </output>

    <processing>
        <offset.disable-normalization value="true"/>
    </processing>

    <junctions>
        <no-turnarounds value="true"/>
    </junctions>

    <netedit>
        <new-network value="false"/>
    </netedit>

</neteditConfiguration>
-->

<net version="1.20" junctionCornerDetail="5" limitTurnSpeed="5.50" xmlns:xsi="http://www.w3.org/2001/XMLSchema-instance" xsi:noNamespaceSchemaLocation="http://sumo.dlr.de/xsd/net_file.xsd">

    <location netOffset="0.00,0.00" convBoundary="-100.00,-100.00,200.00,200.00" origBoundary="10000000000.00,10000000000.00,-10000000000.00,-10000000000.00" projParameter="!"/>

    <edge id=":J0_0" function="internal">
        <lane id=":J0_0_0" index="0" speed="9.73" length="21.49" shape="-92.84,9.42 -96.37,4.71 -97.55,-0.00 -96.37,-4.71 -92.84,-9.42"/>
    </edge>
    <edge id=":J0_1" function="internal">
        <lane id=":J0_1_0" index="0" speed="7.42" length="9.49" shape="-92.84,9.42 -96.69,4.60 -97.19,1.32"/>
    </edge>
    <edge id=":J0_6" function="internal">
        <lane id=":J0_6_0" index="0" speed="7.42" length="9.82" shape="-97.19,1.32 -97.21,1.16 -94.41,-0.91 -88.27,-1.60"/>
    </edge>
    <edge id=":J0_2" function="internal">
        <lane id=":J0_2_0" index="0" speed="5.47" length="9.74" shape="-88.27,1.60 -91.37,1.95 -92.78,2.99 -92.52,4.73 -90.58,7.16"/>
    </edge>
    <edge id=":J0_3" function="internal">
        <lane id=":J0_3_0" index="0" speed="7.42" length="19.31" shape="-88.27,1.60 -94.41,0.91 -97.21,-1.16 -96.69,-4.60 -92.84,-9.42"/>
    </edge>
    <edge id=":J0_4" function="internal">
        <lane id=":J0_4_0" index="0" speed="5.47" length="9.74" shape="-90.58,-7.16 -92.52,-4.73 -92.78,-2.99 -91.37,-1.95 -88.27,-1.60"/>
    </edge>
    <edge id=":J0_5" function="internal">
        <lane id=":J0_5_0" index="0" speed="8.54" length="16.33" shape="-90.58,-7.16 -93.26,-3.58 -94.16,-0.00 -93.26,3.58 -90.58,7.16"/>
    </edge>
    <edge id=":J1_0" function="internal">
        <lane id=":J1_0_0" index="0" speed="9.73" length="21.49" shape="-92.84,109.42 -96.37,104.71 -97.55,100.00 -96.37,95.29 -92.84,90.58"/>
    </edge>
    <edge id=":J1_1" function="internal">
        <lane id=":J1_1_0" index="0" speed="7.42" length="9.49" shape="-92.84,109.42 -96.69,104.60 -97.19,101.32"/>
    </edge>
    <edge id=":J1_6" function="internal">
        <lane id=":J1_6_0" index="0" speed="7.42" length="9.82" shape="-97.19,101.32 -97.21,101.16 -94.41,99.09 -88.27,98.40"/>
    </edge>
    <edge id=":J1_2" function="internal">
        <lane id=":J1_2_0" index="0" speed="5.47" length="9.74" shape="-88.27,101.60 -91.37,101.95 -92.78,102.99 -92.52,104.73 -90.58,107.16"/>
    </edge>
    <edge id=":J1_3" function="internal">
        <lane id=":J1_3_0" index="0" speed="7.42" length="19.31" shape="-88.27,101.60 -94.41,100.91 -97.21,98.84 -96.69,95.40 -92.84,90.58"/>
    </edge>
    <edge id=":J1_4" function="internal">
        <lane id=":J1_4_0" index="0" speed="5.47" length="9.74" shape="-90.58,92.84 -92.52,95.27 -92.78,97.01 -91.37,98.05 -88.27,98.40"/>
    </edge>
    <edge id=":J1_5" function="internal">
        <lane id=":J1_5_0" index="0" speed="8.54" length="16.33" shape="-90.58,92.84 -93.26,96.42 -94.16,100.00 -93.26,103.58 -90.58,107.16"/>
    </edge>
    <edge id=":J10_0" function="internal">
        <lane id=":J10_0_0" index="0" speed="5.47" length="9.74" shape="-1.60,-88.27 -1.95,-91.37 -2.99,-92.78 -4.73,-92.52 -7.16,-90.58"/>
    </edge>
    <edge id=":J10_1" function="internal">
        <lane id=":J10_1_0" index="0" speed="7.42" length="19.31" shape="-1.60,-88.27 -0.91,-94.41 1.16,-97.21 4.60,-96.69 9.42,-92.84"/>
    </edge>
    <edge id=":J10_2" function="internal">
        <lane id=":J10_2_0" index="0" speed="5.47" length="9.74" shape="7.16,-90.58 4.73,-92.52 2.99,-92.78 1.95,-91.37 1.60,-88.27"/>
    </edge>
    <edge id=":J10_3" function="internal">
        <lane id=":J10_3_0" index="0" speed="8.54" length="16.33" shape="7.16,-90.58 3.58,-93.26 -0.00,-94.16 -3.58,-93.26 -7.16,-90.58"/>
    </edge>
    <edge id=":J10_4" function="internal">
        <lane id=":J10_4_0" index="0" speed="9.73" length="21.49" shape="-9.42,-92.84 -4.71,-96.37 0.00,-97.55 4.71,-96.37 9.42,-92.84"/>
    </edge>
    <edge id=":J10_5" function="internal">
        <lane id=":J10_5_0" index="0" speed="7.42" length="9.49" shape="-9.42,-92.84 -4.60,-96.69 -1.32,-97.19"/>
    </edge>
    <edge id=":J10_6" function="internal">
        <lane id=":J10_6_0" index="0" speed="7.42" length="9.82" shape="-1.32,-97.19 -1.16,-97.21 0.91,-94.41 1.60,-88.27"/>
    </edge>
    <edge id=":J11_0" function="internal">
        <lane id=":J11_0_0" index="0" speed="5.47" length="9.74" shape="98.40,-88.27 98.05,-91.37 97.01,-92.78 95.27,-92.52 92.84,-90.58"/>
    </edge>
    <edge id=":J11_1" function="internal">
        <lane id=":J11_1_0" index="0" speed="7.42" length="19.31" shape="98.40,-88.27 99.09,-94.41 101.16,-97.21 104.60,-96.69 109.42,-92.84"/>
    </edge>
    <edge id=":J11_2" function="internal">
        <lane id=":J11_2_0" index="0" speed="5.47" length="9.74" shape="107.16,-90.58 104.73,-92.52 102.99,-92.78 101.95,-91.37 101.60,-88.27"/>
    </edge>
    <edge id=":J11_3" function="internal">
        <lane id=":J11_3_0" index="0" speed="8.54" length="16.33" shape="107.16,-90.58 103.58,-93.26 100.00,-94.16 96.42,-93.26 92.84,-90.58"/>
    </edge>
    <edge id=":J11_4" function="internal">
        <lane id=":J11_4_0" index="0" speed="9.73" length="21.49" shape="90.58,-92.84 95.29,-96.37 100.00,-97.55 104.71,-96.37 109.42,-92.84"/>
    </edge>
    <edge id=":J11_5" function="internal">
        <lane id=":J11_5_0" index="0" speed="7.42" length="9.49" shape="90.58,-92.84 95.40,-96.69 98.68,-97.19"/>
    </edge>
    <edge id=":J11_6" function="internal">
        <lane id=":J11_6_0" index="0" speed="7.42" length="9.82" shape="98.68,-97.19 98.84,-97.21 100.91,-94.41 101.60,-88.27"/>
    </edge>
    <edge id=":J13_0" function="internal">
        <lane id=":J13_0_0" index="0" speed="13.89" length="9.16" shape="-1.60,102.98 -1.60,93.82"/>
    </edge>
    <edge id=":J13_1" function="internal">
        <lane id=":J13_1_0" index="0" speed="9.79" length="8.71" shape="-1.60,102.98 -1.36,101.14 -0.62,99.27 0.60,97.37 2.30,95.43"/>
    </edge>
    <edge id=":J13_2" function="internal">
        <lane id=":J13_2_0" index="0" speed="8.34" length="6.20" shape="4.57,97.70 3.27,99.14 2.34,100.50 1.79,101.78 1.60,102.98"/>
    </edge>
    <edge id=":J13_3" function="internal">
        <lane id=":J13_3_0" index="0" speed="5.92" length="11.65" shape="4.57,97.70 1.87,99.77 -0.06,99.81 -1.21,97.83 -1.60,93.82"/>
    </edge>
    <edge id=":J14_0" function="internal">
        <lane id=":J14_0_0" index="0" speed="7.11" length="4.40" shape="102.98,1.60 101.87,1.70 100.83,2.01 99.89,2.52 99.02,3.24"/>
    </edge>
    <edge id=":J2_0" function="internal">
        <lane id=":J2_0_0" index="0" speed="8.96" length="18.06" shape="-93.60,204.80 -98.50,204.10 -102.00,202.00 -104.10,198.50 -104.80,193.60"/>
        <lane id=":J2_0_1" index="1" speed="7.66" length="12.90" shape="-93.60,201.60 -97.10,201.10 -99.60,199.60 -101.10,197.10 -101.60,193.60"/>
    </edge>
    <edge id=":J2_2" function="internal">
        <lane id=":J2_2_0" index="0" speed="3.90" length="2.58" shape="-95.20,193.60 -95.10,194.30 -94.80,194.80 -94.30,195.10 -93.60,195.20"/>
        <lane id=":J2_2_1" index="1" speed="6.08" length="7.74" shape="-98.40,193.60 -98.10,195.70 -97.20,197.20 -95.70,198.10 -93.60,198.40"/>
    </edge>
    <edge id=":J3_0" function="internal">
        <lane id=":J3_0_0" index="0" speed="9.73" length="21.49" shape="9.42,192.84 4.71,196.37 0.00,197.55 -4.71,196.37 -9.42,192.84"/>
    </edge>
    <edge id=":J3_1" function="internal">
        <lane id=":J3_1_0" index="0" speed="7.42" length="9.49" shape="9.42,192.84 4.60,196.69 1.32,197.19"/>
    </edge>
    <edge id=":J3_9" function="internal">
        <lane id=":J3_9_0" index="0" speed="7.42" length="9.82" shape="1.32,197.19 1.16,197.21 -0.91,194.41 -1.60,188.27"/>
    </edge>
    <edge id=":J3_2" function="internal">
        <lane id=":J3_2_0" index="0" speed="5.47" length="9.74" shape="1.60,188.27 1.95,191.37 2.99,192.78 4.73,192.52 7.16,190.58"/>
    </edge>
    <edge id=":J3_3" function="internal">
        <lane id=":J3_3_0" index="0" speed="7.42" length="19.31" shape="1.60,188.27 0.91,194.41 -1.16,197.21 -4.60,196.69 -9.42,192.84"/>
    </edge>
    <edge id=":J3_4" function="internal">
        <lane id=":J3_4_0" index="0" speed="3.24" length="3.20" shape="1.60,188.27 -1.60,188.27"/>
    </edge>
    <edge id=":J3_5" function="internal">
        <lane id=":J3_5_0" index="0" speed="5.47" length="9.74" shape="1.60,188.27 1.95,191.37 2.99,192.78 4.73,192.52 7.16,190.58"/>
    </edge>
    <edge id=":J3_6" function="internal">
        <lane id=":J3_6_0" index="0" speed="7.42" length="19.31" shape="1.60,188.27 0.91,194.41 -1.16,197.21 -4.60,196.69 -9.42,192.84"/>
    </edge>
    <edge id=":J3_7" function="internal">
        <lane id=":J3_7_0" index="0" speed="5.47" length="9.74" shape="-7.16,190.58 -4.73,192.52 -2.99,192.78 -1.95,191.37 -1.60,188.27"/>
    </edge>
    <edge id=":J3_8" function="internal">
        <lane id=":J3_8_0" index="0" speed="8.54" length="16.33" shape="-7.16,190.58 -3.58,193.26 -0.00,194.16 3.58,193.26 7.16,190.58"/>
    </edge>
    <edge id=":J4_0" function="internal">
        <lane id=":J4_0_0" index="0" speed="9.73" length="21.49" shape="109.42,192.84 104.71,196.37 100.00,197.55 95.29,196.37 90.58,192.84"/>
    </edge>
    <edge id=":J4_1" function="internal">
        <lane id=":J4_1_0" index="0" speed="7.42" length="9.49" shape="109.42,192.84 104.60,196.69 101.32,197.19"/>
    </edge>
    <edge id=":J4_6" function="internal">
        <lane id=":J4_6_0" index="0" speed="7.42" length="9.82" shape="101.32,197.19 101.16,197.21 99.09,194.41 98.40,188.27"/>
    </edge>
    <edge id=":J4_2" function="internal">
        <lane id=":J4_2_0" index="0" speed="5.47" length="9.74" shape="101.60,188.27 101.95,191.37 102.99,192.78 104.73,192.52 107.16,190.58"/>
    </edge>
    <edge id=":J4_3" function="internal">
        <lane id=":J4_3_0" index="0" speed="7.42" length="19.31" shape="101.60,188.27 100.91,194.41 98.84,197.21 95.40,196.69 90.58,192.84"/>
    </edge>
    <edge id=":J4_4" function="internal">
        <lane id=":J4_4_0" index="0" speed="5.47" length="9.74" shape="92.84,190.58 95.27,192.52 97.01,192.78 98.05,191.37 98.40,188.27"/>
    </edge>
    <edge id=":J4_5" function="internal">
        <lane id=":J4_5_0" index="0" speed="8.54" length="16.33" shape="92.84,190.58 96.42,193.26 100.00,194.16 103.58,193.26 107.16,190.58"/>
    </edge>
    <edge id=":J5_0" function="internal">
        <lane id=":J5_0_0" index="0" speed="8.96" length="18.06" shape="204.80,193.60 204.10,198.50 202.00,202.00 198.50,204.10 193.60,204.80"/>
        <lane id=":J5_0_1" index="1" speed="7.66" length="12.90" shape="201.60,193.60 201.10,197.10 199.60,199.60 197.10,201.10 193.60,201.60"/>
    </edge>
    <edge id=":J5_2" function="internal">
        <lane id=":J5_2_0" index="0" speed="3.90" length="2.58" shape="193.60,195.20 194.30,195.10 194.80,194.80 195.10,194.30 195.20,193.60"/>
        <lane id=":J5_2_1" index="1" speed="6.08" length="7.74" shape="193.60,198.40 195.70,198.10 197.20,197.20 198.10,195.70 198.40,193.60"/>
    </edge>
    <edge id=":J6_0" function="internal">
        <lane id=":J6_0_0" index="0" speed="9.73" length="21.49" shape="192.84,90.58 196.37,95.29 197.55,100.00 196.37,104.71 192.84,109.42"/>
    </edge>
    <edge id=":J6_1" function="internal">
        <lane id=":J6_1_0" index="0" speed="7.42" length="9.49" shape="192.84,90.58 196.69,95.40 197.19,98.68"/>
    </edge>
    <edge id=":J6_6" function="internal">
        <lane id=":J6_6_0" index="0" speed="7.42" length="9.82" shape="197.19,98.68 197.21,98.84 194.41,100.91 188.27,101.60"/>
    </edge>
    <edge id=":J6_2" function="internal">
        <lane id=":J6_2_0" index="0" speed="5.47" length="9.74" shape="188.27,98.40 191.37,98.05 192.78,97.01 192.52,95.27 190.58,92.84"/>
    </edge>
    <edge id=":J6_3" function="internal">
        <lane id=":J6_3_0" index="0" speed="7.42" length="19.31" shape="188.27,98.40 194.41,99.09 197.21,101.16 196.69,104.60 192.84,109.42"/>
    </edge>
    <edge id=":J6_4" function="internal">
        <lane id=":J6_4_0" index="0" speed="5.47" length="9.74" shape="190.58,107.16 192.52,104.73 192.78,102.99 191.37,101.95 188.27,101.60"/>
    </edge>
    <edge id=":J6_5" function="internal">
        <lane id=":J6_5_0" index="0" speed="8.54" length="16.33" shape="190.58,107.16 193.26,103.58 194.16,100.00 193.26,96.42 190.58,92.84"/>
    </edge>
    <edge id=":J7_0" function="internal">
        <lane id=":J7_0_0" index="0" speed="9.73" length="21.49" shape="192.84,-9.42 196.37,-4.71 197.55,0.00 196.37,4.71 192.84,9.42"/>
    </edge>
    <edge id=":J7_1" function="internal">
        <lane id=":J7_1_0" index="0" speed="7.42" length="9.49" shape="192.84,-9.42 196.69,-4.60 197.19,-1.32"/>
    </edge>
    <edge id=":J7_2" function="internal">
        <lane id=":J7_2_0" index="0" speed="7.42" length="9.49" shape="192.84,-9.42 196.69,-4.60 197.19,-1.32"/>
    </edge>
    <edge id=":J7_9" function="internal">
        <lane id=":J7_9_0" index="0" speed="7.42" length="9.82" shape="197.19,-1.32 197.21,-1.16 194.41,0.91 188.27,1.60"/>
    </edge>
    <edge id=":J7_10" function="internal">
        <lane id=":J7_10_0" index="0" speed="7.42" length="9.82" shape="197.19,-1.32 197.21,-1.16 194.41,0.91 188.27,1.60"/>
    </edge>
    <edge id=":J7_3" function="internal">
        <lane id=":J7_3_0" index="0" speed="5.47" length="9.74" shape="188.27,-1.60 191.37,-1.95 192.78,-2.99 192.52,-4.73 190.58,-7.16"/>
    </edge>
    <edge id=":J7_4" function="internal">
        <lane id=":J7_4_0" index="0" speed="7.42" length="19.31" shape="188.27,-1.60 194.41,-0.91 197.21,1.16 196.69,4.60 192.84,9.42"/>
    </edge>
    <edge id=":J7_5" function="internal">
        <lane id=":J7_5_0" index="0" speed="3.24" length="3.20" shape="188.27,-1.60 188.27,1.60"/>
    </edge>
    <edge id=":J7_6" function="internal">
        <lane id=":J7_6_0" index="0" speed="5.47" length="9.74" shape="190.58,7.16 192.52,4.73 192.78,2.99 191.37,1.95 188.27,1.60"/>
    </edge>
    <edge id=":J7_7" function="internal">
        <lane id=":J7_7_0" index="0" speed="5.47" length="9.74" shape="190.58,7.16 192.52,4.73 192.78,2.99 191.37,1.95 188.27,1.60"/>
    </edge>
    <edge id=":J7_8" function="internal">
        <lane id=":J7_8_0" index="0" speed="8.54" length="16.33" shape="190.58,7.16 193.26,3.58 194.16,-0.00 193.26,-3.58 190.58,-7.16"/>
    </edge>
    <edge id=":J8_0" function="internal">
        <lane id=":J8_0_0" index="0" speed="3.90" length="2.58" shape="195.20,-93.60 195.10,-94.30 194.80,-94.80 194.30,-95.10 193.60,-95.20"/>
        <lane id=":J8_0_1" index="1" speed="6.08" length="7.74" shape="198.40,-93.60 198.10,-95.70 197.20,-97.20 195.70,-98.10 193.60,-98.40"/>
    </edge>
    <edge id=":J8_2" function="internal">
        <lane id=":J8_2_0" index="0" speed="8.96" length="18.06" shape="193.60,-104.80 198.50,-104.10 202.00,-102.00 204.10,-98.50 204.80,-93.60"/>
        <lane id=":J8_2_1" index="1" speed="7.66" length="12.90" shape="193.60,-101.60 197.10,-101.10 199.60,-99.60 201.10,-97.10 201.60,-93.60"/>
    </edge>
    <edge id=":J9_0" function="internal">
        <lane id=":J9_0_0" index="0" speed="8.96" length="18.06" shape="-104.80,-93.60 -104.10,-98.50 -102.00,-102.00 -98.50,-104.10 -93.60,-104.80"/>
        <lane id=":J9_0_1" index="1" speed="7.66" length="12.90" shape="-101.60,-93.60 -101.10,-97.10 -99.60,-99.60 -97.10,-101.10 -93.60,-101.60"/>
    </edge>
    <edge id=":J9_2" function="internal">
        <lane id=":J9_2_0" index="0" speed="3.90" length="2.58" shape="-93.60,-95.20 -94.30,-95.10 -94.80,-94.80 -95.10,-94.30 -95.20,-93.60"/>
        <lane id=":J9_2_1" index="1" speed="6.08" length="7.74" shape="-93.60,-98.40 -95.70,-98.10 -97.20,-97.20 -98.10,-95.70 -98.40,-93.60"/>
    </edge>

    <edge id="-E11" from="J11" to="J4" priority="-1">
        <lane id="-E11_0" index="0" speed="13.89" length="276.55" shape="101.60,-88.27 101.60,188.27"/>
    </edge>
    <edge id="-E12" from="J0" to="J7" priority="-1">
        <lane id="-E12_0" index="0" speed="13.89" length="276.55" shape="-88.27,-1.60 188.27,-1.60"/>
    </edge>
    <edge id="-E13" from="J6" to="J1" priority="-1">
        <lane id="-E13_0" index="0" speed="13.89" length="276.55" shape="188.27,101.60 -88.27,101.60"/>
    </edge>
    <edge id="-E16" from="J3" to="J13" priority="-1">
        <lane id="-E16_0" index="0" speed="13.89" length="85.29" shape="-1.60,188.27 -1.60,102.98"/>
    </edge>
    <edge id="-E18" from="J5" to="J8" priority="-1">
        <lane id="-E18_0" index="0" speed="13.89" length="287.20" shape="195.20,193.60 195.20,-93.60"/>
        <lane id="-E18_1" index="1" speed="13.89" length="287.20" shape="198.40,193.60 198.40,-93.60"/>
    </edge>
    <edge id="-E20" from="J2" to="J5" priority="-1">
        <lane id="-E20_0" index="0" speed="13.89" length="287.20" shape="-93.60,195.20 193.60,195.20"/>
        <lane id="-E20_1" index="1" speed="13.89" length="287.20" shape="-93.60,198.40 193.60,198.40"/>
    </edge>
    <edge id="-E26" from="J9" to="J2" priority="-1">
        <lane id="-E26_0" index="0" speed="13.89" length="287.20" shape="-95.20,-93.60 -95.20,193.60"/>
        <lane id="-E26_1" index="1" speed="13.89" length="287.20" shape="-98.40,-93.60 -98.40,193.60"/>
    </edge>
    <edge id="-E28" from="J14" to="J13" priority="-1">
        <lane id="-E28_0" index="0" speed="13.89" length="133.58" shape="99.02,3.24 4.57,97.70"/>
    </edge>
    <edge id="-E29" from="J10" to="J6" priority="-1">
        <lane id="-E29_0" index="0" speed="13.89" length="259.39" shape="9.42,-92.84 192.84,90.58"/>
    </edge>
    <edge id="-E30" from="J0" to="J4" priority="-1">
        <lane id="-E30_0" index="0" speed="13.89" length="259.39" shape="-90.58,7.16 92.84,190.58"/>
    </edge>
    <edge id="-E31" from="J1" to="J11" priority="-1">
        <lane id="-E31_0" index="0" speed="13.89" length="259.39" shape="-92.84,90.58 90.58,-92.84"/>
    </edge>
    <edge id="-E32" from="J7" to="J11" priority="-1">
        <lane id="-E32_0" index="0" speed="13.89" length="117.97" shape="190.58,-7.16 107.16,-90.58"/>
    </edge>
    <edge id="-E33" from="J3" to="J7" priority="-1">
        <lane id="-E33_0" index="0" speed="13.89" length="259.39" shape="7.16,190.58 190.58,7.16"/>
    </edge>
    <edge id="-E34" from="J1" to="J3" priority="-1">
        <lane id="-E34_0" index="0" speed="13.89" length="117.97" shape="-90.58,107.16 -7.16,190.58"/>
    </edge>
    <edge id="-E35" from="J0" to="J10" priority="-1">
        <lane id="-E35_0" index="0" speed="13.89" length="117.97" shape="-92.84,-9.42 -9.42,-92.84"/>
    </edge>
    <edge id="-E36" from="J4" to="J6" priority="-1">
        <lane id="-E36_0" index="0" speed="13.89" length="117.97" shape="107.16,190.58 190.58,107.16"/>
    </edge>
    <edge id="-E37" from="J18" to="J16" priority="-1">
        <lane id="-E37_0" index="0" speed="13.89" length="141.42" shape="98.87,101.13 -1.13,1.13"/>
    </edge>
    <edge id="-E8" from="J9" to="J8" priority="-1">
        <lane id="-E8_0" index="0" speed="13.89" length="287.20" shape="-93.60,-104.80 193.60,-104.80"/>
        <lane id="-E8_1" index="1" speed="13.89" length="287.20" shape="-93.60,-101.60 193.60,-101.60"/>
    </edge>
    <edge id="E10" from="J10" to="J3" priority="-1">
        <lane id="E10_0" index="0" speed="13.89" length="276.55" shape="1.60,-88.27 1.60,188.27"/>
    </edge>
    <edge id="E11" from="J4" to="J11" priority="-1">
        <lane id="E11_0" index="0" speed="13.89" length="276.55" shape="98.40,188.27 98.40,-88.27"/>
    </edge>
    <edge id="E12" from="J7" to="J0" priority="-1">
        <lane id="E12_0" index="0" speed="13.89" length="276.55" shape="188.27,1.60 -88.27,1.60"/>
    </edge>
    <edge id="E13" from="J1" to="J6" priority="-1">
        <lane id="E13_0" index="0" speed="13.89" length="276.55" shape="-88.27,98.40 188.27,98.40"/>
    </edge>
    <edge id="E16" from="J13" to="J3" priority="-1">
        <lane id="E16_0" index="0" speed="13.89" length="85.29" shape="1.60,102.98 1.60,188.27"/>
    </edge>
    <edge id="E17" from="J13" to="J10" priority="-1">
        <lane id="E17_0" index="0" speed="13.89" length="182.09" shape="-1.60,93.82 -1.60,-88.27"/>
    </edge>
    <edge id="E18" from="J8" to="J5" priority="-1">
        <lane id="E18_0" index="0" speed="13.89" length="287.20" shape="204.80,-93.60 204.80,193.60"/>
        <lane id="E18_1" index="1" speed="13.89" length="287.20" shape="201.60,-93.60 201.60,193.60"/>
    </edge>
    <edge id="E19" from="J7" to="J14" priority="-1">
        <lane id="E19_0" index="0" speed="13.89" length="85.29" shape="188.27,1.60 102.98,1.60"/>
    </edge>
    <edge id="E20" from="J5" to="J2" priority="-1">
        <lane id="E20_0" index="0" speed="13.89" length="287.20" shape="193.60,204.80 -93.60,204.80"/>
        <lane id="E20_1" index="1" speed="13.89" length="287.20" shape="193.60,201.60 -93.60,201.60"/>
    </edge>
    <edge id="E26" from="J2" to="J9" priority="-1">
        <lane id="E26_0" index="0" speed="13.89" length="287.20" shape="-104.80,193.60 -104.80,-93.60"/>
        <lane id="E26_1" index="1" speed="13.89" length="287.20" shape="-101.60,193.60 -101.60,-93.60"/>
    </edge>
    <edge id="E28" from="J13" to="J14" priority="-1">
        <lane id="E28_0" index="0" speed="13.89" length="133.58" shape="2.30,95.43 96.76,0.98"/>
    </edge>
    <edge id="E29" from="J6" to="J10" priority="-1">
        <lane id="E29_0" index="0" speed="13.89" length="259.39" shape="190.58,92.84 7.16,-90.58"/>
    </edge>
    <edge id="E30" from="J4" to="J0" priority="-1">
        <lane id="E30_0" index="0" speed="13.89" length="259.39" shape="90.58,192.84 -92.84,9.42"/>
    </edge>
    <edge id="E31" from="J11" to="J1" priority="-1">
        <lane id="E31_0" index="0" speed="13.89" length="259.39" shape="92.84,-90.58 -90.58,92.84"/>
    </edge>
    <edge id="E32" from="J11" to="J7" priority="-1">
        <lane id="E32_0" index="0" speed="13.89" length="117.97" shape="109.42,-92.84 192.84,-9.42"/>
    </edge>
    <edge id="E33" from="J7" to="J3" priority="-1">
        <lane id="E33_0" index="0" speed="13.89" length="259.39" shape="192.84,9.42 9.42,192.84"/>
    </edge>
    <edge id="E34" from="J3" to="J1" priority="-1">
        <lane id="E34_0" index="0" speed="13.89" length="117.97" shape="-9.42,192.84 -92.84,109.42"/>
    </edge>
    <edge id="E35" from="J10" to="J0" priority="-1">
        <lane id="E35_0" index="0" speed="13.89" length="117.97" shape="-7.16,-90.58 -90.58,-7.16"/>
    </edge>
    <edge id="E36" from="J6" to="J4" priority="-1">
        <lane id="E36_0" index="0" speed="13.89" length="117.97" shape="192.84,109.42 109.42,192.84"/>
    </edge>
    <edge id="E37" from="J16" to="J18" priority="-1">
        <lane id="E37_0" index="0" speed="13.89" length="141.42" shape="1.13,-1.13 101.13,98.87"/>
    </edge>
    <edge id="E8" from="J8" to="J9" priority="-1">
        <lane id="E8_0" index="0" speed="13.89" length="287.20" shape="193.60,-95.20 -93.60,-95.20"/>
        <lane id="E8_1" index="1" speed="13.89" length="287.20" shape="193.60,-98.40 -93.60,-98.40"/>
    </edge>

    <tlLogic id="J0" type="static" programID="0" offset="0">
        <phase duration="42" state="GgrrGG"/>
        <phase duration="3"  state="yyrrGy"/>
        <phase duration="42" state="rrGGGr"/>
        <phase duration="3"  state="rryyGr"/>
    </tlLogic>
    <tlLogic id="J1" type="static" programID="0" offset="0">
        <phase duration="42" state="GgrrGG"/>
        <phase duration="3"  state="yyrrGy"/>
        <phase duration="42" state="rrGGGr"/>
        <phase duration="3"  state="rryyGr"/>
    </tlLogic>
    <tlLogic id="J10" type="static" programID="0" offset="0">
        <phase duration="42" state="rrGGGg"/>
        <phase duration="3"  state="rrGyyy"/>
        <phase duration="42" state="GGGrrr"/>
        <phase duration="3"  state="yyGrrr"/>
    </tlLogic>
    <tlLogic id="J11" type="static" programID="0" offset="0">
        <phase duration="42" state="rrGGGg"/>
        <phase duration="3"  state="rrGyyy"/>
        <phase duration="42" state="GGGrrr"/>
        <phase duration="3"  state="yyGrrr"/>
    </tlLogic>
    <tlLogic id="J13" type="static" programID="0" offset="0">
        <phase duration="42" state="rrGG"/>
        <phase duration="3"  state="rrGy"/>
        <phase duration="42" state="GGGr"/>
        <phase duration="3"  state="yyGr"/>
    </tlLogic>
    <tlLogic id="J14" type="static" programID="0" offset="0">
        <phase duration="82" state="G"/>
        <phase duration="3"  state="y"/>
        <phase duration="5"  state="r"/>
    </tlLogic>
    <tlLogic id="J2" type="static" programID="0" offset="0">
        <phase duration="90" state="GGGG"/>
    </tlLogic>
    <tlLogic id="J3" type="static" programID="0" offset="0">
        <phase duration="27" state="GgrrrrrGG"/>
        <phase duration="3"  state="yyrrrrrGy"/>
        <phase duration="27" state="rrrrrGGGr"/>
        <phase duration="3"  state="rrrrryyyr"/>
        <phase duration="27" state="rrGGGrrrr"/>
        <phase duration="3"  state="rryyyrrrr"/>
    </tlLogic>
    <tlLogic id="J4" type="static" programID="0" offset="0">
        <phase duration="42" state="GgrrGG"/>
        <phase duration="3"  state="yyrrGy"/>
        <phase duration="42" state="rrGGGr"/>
        <phase duration="3"  state="rryyGr"/>
    </tlLogic>
    <tlLogic id="J5" type="static" programID="0" offset="0">
        <phase duration="90" state="GGGG"/>
    </tlLogic>
    <tlLogic id="J6" type="static" programID="0" offset="0">
        <phase duration="42" state="GgrrGG"/>
        <phase duration="3"  state="yyrrGy"/>
        <phase duration="42" state="rrGGGr"/>
        <phase duration="3"  state="rryyGr"/>
    </tlLogic>
    <tlLogic id="J7" type="static" programID="0" offset="0">
        <phase duration="42" state="GggrrrGGG"/>
        <phase duration="3"  state="yyyrrryyy"/>
        <phase duration="42" state="rrrGGGrrr"/>
        <phase duration="3"  state="rrryyyrrr"/>
    </tlLogic>
    <tlLogic id="J8" type="static" programID="0" offset="0">
        <phase duration="90" state="GGGG"/>
    </tlLogic>
    <tlLogic id="J9" type="static" programID="0" offset="0">
        <phase duration="90" state="GGGG"/>
    </tlLogic>

    <junction id="J0" type="traffic_light" x="-100.00" y="0.00" incLanes="E30_0 E12_0 E35_0" intLanes=":J0_0_0 :J0_6_0 :J0_2_0 :J0_3_0 :J0_4_0 :J0_5_0" shape="-93.97,10.55 -89.45,6.03 -90.57,4.46 -90.57,3.91 -90.18,3.51 -89.42,3.28 -88.27,3.20 -88.27,-3.20 -90.18,-3.51 -90.57,-3.91 -90.57,-4.46 -90.20,-5.16 -89.45,-6.03 -93.97,-10.55 -96.90,-7.04 -98.66,-3.52 -99.25,-0.00 -98.66,3.52 -96.90,7.04">
        <request index="0" response="000000" foes="001000" cont="0"/>
        <request index="1" response="110000" foes="111000" cont="1"/>
        <request index="2" response="100000" foes="100000" cont="0"/>
        <request index="3" response="100011" foes="100011" cont="0"/>
        <request index="4" response="000000" foes="000010" cont="0"/>
        <request index="5" response="000000" foes="001110" cont="0"/>
    </junction>
    <junction id="J1" type="traffic_light" x="-100.00" y="100.00" incLanes="E34_0 -E13_0 E31_0" intLanes=":J1_0_0 :J1_6_0 :J1_2_0 :J1_3_0 :J1_4_0 :J1_5_0" shape="-93.97,110.55 -89.45,106.03 -90.57,104.46 -90.57,103.91 -90.18,103.51 -89.42,103.28 -88.27,103.20 -88.27,96.80 -90.18,96.49 -90.57,96.09 -90.57,95.54 -90.20,94.84 -89.45,93.97 -93.97,89.45 -96.90,92.96 -98.66,96.48 -99.25,100.00 -98.66,103.52 -96.90,107.04">
        <request index="0" response="000000" foes="001000" cont="0"/>
        <request index="1" response="110000" foes="111000" cont="1"/>
        <request index="2" response="100000" foes="100000" cont="0"/>
        <request index="3" response="100011" foes="100011" cont="0"/>
        <request index="4" response="000000" foes="000010" cont="0"/>
        <request index="5" response="000000" foes="001110" cont="0"/>
    </junction>
    <junction id="J10" type="traffic_light" x="0.00" y="-100.00" incLanes="E17_0 E29_0 -E35_0" intLanes=":J10_0_0 :J10_1_0 :J10_2_0 :J10_3_0 :J10_4_0 :J10_6_0" shape="-3.20,-88.27 3.20,-88.27 3.51,-90.18 3.91,-90.57 4.46,-90.57 5.16,-90.20 6.03,-89.45 10.55,-93.97 7.04,-96.90 3.52,-98.66 0.00,-99.25 -3.52,-98.66 -7.04,-96.90 -10.55,-93.97 -6.03,-89.45 -4.46,-90.57 -3.91,-90.57 -3.51,-90.18 -3.28,-89.42">
        <request index="0" response="001000" foes="001000" cont="0"/>
        <request index="1" response="111000" foes="111000" cont="0"/>
        <request index="2" response="000000" foes="100000" cont="0"/>
        <request index="3" response="000000" foes="100011" cont="0"/>
        <request index="4" response="000000" foes="000010" cont="0"/>