<?xml version="1.0" encoding="UTF-8"?>

<!-- generated on 2025-04-12 20:29:21 by Eclipse SUMO netedit Version 1.22.0
-->

<routes xmlns:xsi="http://www.w3.org/2001/XMLSchema-instance" xsi:noNamespaceSchemaLocation="http://sumo.dlr.de/xsd/routes_file.xsd">
    <!-- Vehicles, persons and containers (sorted by depart) -->
    <flow id="f_0" begin="0.00" from="E3" to="-E15" via="E15" end="3600.00" vehsPerHour="10"/>
    <flow id="f_1" begin="0.00" color="cyan" from="-E9" to="-E18" via="E14" end="3600.00" vehsPerHour="10"/>
    <flow id="f_2" begin="0.00" color="red" from="-E13" to="E22" via="E4" end="3600.00" vehsPerHour="10"/>
    <personFlow id="pf_0" begin="0.00" end="3600.00" personsPerHour="1800">
        <personTrip from="E2" to="-E13"/>
    </personFlow>
    <personFlow id="pf_1" begin="0.00" end="3600.00" personsPerHour="1800">
        <personTrip from="-E10" to="E18"/>
    </personFlow>
    <personFlow id="pf_2" begin="0.00" color="cyan" end="3600.00" personsPerHour="1800">
        <personTrip from="E15" to="-E3"/>
    </personFlow>
</routes>
