<?xml version="1.0" encoding="UTF-8"?>

<!-- generated on 2025-04-12 21:30:33 by Eclipse SUMO netedit Version 1.22.0
<neteditConfiguration xmlns:xsi="http://www.w3.org/2001/XMLSchema-instance" xsi:noNamespaceSchemaLocation="http://sumo.dlr.de/xsd/neteditConfiguration.xsd">

    <input>
        <sumocfg-file value="F:\Programs\eclipse\Sumo\workspace\grid3x3-notrafficlights\grid3x3.sumocfg"/>
        <additional-files value=""/>
        <route-files value="F:\Programs\eclipse\Sumo\workspace\grid3x3-notrafficlights\grid3x3.rou.xml"/>
        <sumo-net-file value="F:\Programs\eclipse\Sumo\workspace\grid3x3-notrafficlights\grid3x3.net.xml"/>
    </input>

    <output>
        <output-file value="F:\Programs\eclipse\Sumo\workspace\grid3x3-notrafficlights\grid3x3.net.xml"/>
    </output>

    <processing>
        <geometry.min-radius.fix.railways value="false"/>
        <geometry.max-grade.fix value="false"/>
        <offset.disable-normalization value="true"/>
        <lefthand value="0"/>
    </processing>

    <junctions>
        <no-turnarounds value="true"/>
        <junctions.corner-detail value="5"/>
        <junctions.limit-turn-speed value="5.50"/>
        <rectangular-lane-cut value="0"/>
    </junctions>

    <pedestrian>
        <walkingareas value="0"/>
    </pedestrian>

</neteditConfiguration>
-->

<net version="1.20" junctionCornerDetail="5" limitTurnSpeed="5.50" xmlns:xsi="http://www.w3.org/2001/XMLSchema-instance" xsi:noNamespaceSchemaLocation="http://sumo.dlr.de/xsd/net_file.xsd">

    <location netOffset="0.00,0.00" convBoundary="-200.00,-200.00,100.00,100.00" origBoundary="-10000000000.00,-10000000000.00,10000000000.00,10000000000.00" projParameter="!"/>

    <edge id=":J0_0" function="internal">
        <lane id=":J0_0_0" index="0" disallow="pedestrian" speed="7.10" length="10.97" shape="101.60,94.80 101.17,97.77 99.90,99.90 97.78,101.17 94.80,101.60"/>
    </edge>
    <edge id=":J0_1" function="internal">
        <lane id=":J0_1_0" index="0" disallow="pedestrian" speed="5.37" length="5.81" shape="94.80,98.40 96.38,98.17 97.50,97.50 98.18,96.38 98.40,94.80"/>
    </edge>
    <edge id=":J1_0" function="internal">
        <lane id=":J1_0_0" index="0" disallow="pedestrian" speed="13.89" length="10.40" shape="5.20,101.60 -5.20,101.60"/>
    </edge>
    <edge id=":J1_1" function="internal">
        <lane id=":J1_1_0" index="0" disallow="pedestrian" speed="7.58" length="3.14" shape="5.20,101.60 2.22,101.05 2.13,100.98"/>
    </edge>
    <edge id=":J1_6" function="internal">
        <lane id=":J1_6_0" index="0" disallow="pedestrian" speed="7.58" length="9.48" shape="2.13,100.98 0.10,99.40 -1.18,96.65 -1.60,92.80"/>
    </edge>
    <edge id=":J1_2" function="internal">
        <lane id=":J1_2_0" index="0" disallow="pedestrian" speed="5.99" length="7.49" shape="1.60,92.80 1.83,95.25 2.50,97.00 3.63,98.05 5.20,98.40"/>
    </edge>
    <edge id=":J1_3" function="internal">
        <lane id=":J1_3_0" index="0" disallow="pedestrian" speed="7.58" length="12.62" shape="1.60,92.80 1.17,96.65 -0.10,99.40 -2.23,101.05 -5.20,101.60"/>
    </edge>
    <edge id=":J1_4" function="internal">
        <lane id=":J1_4_0" index="0" disallow="pedestrian" speed="5.99" length="7.49" shape="-5.20,98.40 -3.62,98.05 -2.50,97.00 -1.82,95.25 -1.60,92.80"/>
    </edge>
    <edge id=":J1_5" function="internal">
        <lane id=":J1_5_0" index="0" disallow="pedestrian" speed="13.89" length="10.40" shape="-5.20,98.40 5.20,98.40"/>
    </edge>
    <edge id=":J10_0" function="internal">
        <lane id=":J10_0_0" index="0" disallow="pedestrian" speed="6.51" length="9.03" shape="-4.80,-89.60 -5.15,-92.05 -6.20,-93.80 -7.95,-94.85 -10.40,-95.20"/>
    </edge>
    <edge id=":J10_1" function="internal">
        <lane id=":J10_1_0" index="0" disallow="pedestrian" speed="13.89" length="20.80" shape="-4.80,-89.60 -4.80,-110.40"/>
        <lane id=":J10_1_1" index="1" disallow="pedestrian" speed="13.89" length="20.80" shape="-1.60,-89.60 -1.60,-110.40"/>
    </edge>
    <edge id=":J10_3" function="internal">
        <lane id=":J10_3_0" index="0" disallow="pedestrian" speed="9.26" length="5.01" shape="-1.60,-89.60 -0.89,-94.56"/>
    </edge>
    <edge id=":J10_16" function="internal">
        <lane id=":J10_16_0" index="0" disallow="pedestrian" speed="9.26" length="14.34" shape="-0.89,-94.56 -0.85,-94.85 1.40,-98.60 5.15,-100.85 10.40,-101.60"/>
    </edge>
    <edge id=":J10_4" function="internal">
        <lane id=":J10_4_0" index="0" disallow="pedestrian" speed="6.51" length="9.03" shape="10.40,-95.20 7.95,-94.85 6.20,-93.80 5.15,-92.05 4.80,-89.60"/>
    </edge>
    <edge id=":J10_5" function="internal">
        <lane id=":J10_5_0" index="0" disallow="pedestrian" speed="13.89" length="20.80" shape="10.40,-95.20 -10.40,-95.20"/>
        <lane id=":J10_5_1" index="1" disallow="pedestrian" speed="13.89" length="20.80" shape="10.40,-98.40 -10.40,-98.40"/>
    </edge>
    <edge id=":J10_7" function="internal">
        <lane id=":J10_7_0" index="0" disallow="pedestrian" speed="9.26" length="5.01" shape="10.40,-98.40 5.44,-99.11"/>
    </edge>
    <edge id=":J10_17" function="internal">
        <lane id=":J10_17_0" index="0" disallow="pedestrian" speed="9.26" length="14.34" shape="5.44,-99.11 5.15,-99.15 1.40,-101.40 -0.85,-105.15 -1.60,-110.40"/>
    </edge>
    <edge id=":J10_8" function="internal">
        <lane id=":J10_8_0" index="0" disallow="pedestrian" speed="6.51" length="9.03" shape="4.80,-110.40 5.15,-107.95 6.20,-106.20 7.95,-105.15 10.40,-104.80"/>
    </edge>
    <edge id=":J10_9" function="internal">
        <lane id=":J10_9_0" index="0" disallow="pedestrian" speed="13.89" length="20.80" shape="4.80,-110.40 4.80,-89.60"/>
        <lane id=":J10_9_1" index="1" disallow="pedestrian" speed="13.89" length="20.80" shape="1.60,-110.40 1.60,-89.60"/>
    </edge>
    <edge id=":J10_11" function="internal">
        <lane id=":J10_11_0" index="0" disallow="pedestrian" speed="9.26" length="5.01" shape="1.60,-110.40 0.89,-105.44"/>
    </edge>
    <edge id=":J10_18" function="internal">
        <lane id=":J10_18_0" index="0" disallow="pedestrian" speed="9.26" length="14.34" shape="0.89,-105.44 0.85,-105.15 -1.40,-101.40 -5.15,-99.15 -10.40,-98.40"/>
    </edge>
    <edge id=":J10_12" function="internal">
        <lane id=":J10_12_0" index="0" disallow="pedestrian" speed="6.51" length="9.03" shape="-10.40,-104.80 -7.95,-105.15 -6.20,-106.20 -5.15,-107.95 -4.80,-110.40"/>
    </edge>
    <edge id=":J10_13" function="internal">
        <lane id=":J10_13_0" index="0" disallow="pedestrian" speed="13.89" length="20.80" shape="-10.40,-104.80 10.40,-104.80"/>
        <lane id=":J10_13_1" index="1" disallow="pedestrian" speed="13.89" length="20.80" shape="-10.40,-101.60 10.40,-101.60"/>
    </edge>
    <edge id=":J10_15" function="internal">
        <lane id=":J10_15_0" index="0" disallow="pedestrian" speed="9.26" length="5.01" shape="-10.40,-101.60 -5.44,-100.89"/>
    </edge>
    <edge id=":J10_19" function="internal">
        <lane id=":J10_19_0" index="0" disallow="pedestrian" speed="9.26" length="14.34" shape="-5.44,-100.89 -5.15,-100.85 -1.40,-98.60 0.85,-94.85 1.60,-89.60"/>
    </edge>
    <edge id=":J11_0" function="internal">
        <lane id=":J11_0_0" index="0" disallow="pedestrian" speed="7.33" length="11.73" shape="-4.80,-189.60 -5.15,-193.45 -6.20,-196.20 -7.95,-197.85 -10.40,-198.40"/>
    </edge>
    <edge id=":J11_1" function="internal">
        <lane id=":J11_1_0" index="0" disallow="pedestrian" speed="9.26" length="19.35" shape="-1.60,-189.60 -0.85,-194.85 1.40,-198.60 5.15,-200.85 10.40,-201.60"/>
    </edge>
    <edge id=":J11_2" function="internal">
        <lane id=":J11_2_0" index="0" disallow="pedestrian" speed="6.51" length="9.03" shape="10.40,-195.20 7.95,-194.85 6.20,-193.80 5.15,-192.05 4.80,-189.60"/>
        <lane id=":J11_2_1" index="1" disallow="pedestrian" speed="8.00" length="14.19" shape="10.40,-198.40 6.55,-197.85 3.80,-196.20 2.15,-193.45 1.60,-189.60"/>
    </edge>
    <edge id=":J11_4" function="internal">
        <lane id=":J11_4_0" index="0" disallow="pedestrian" speed="13.89" length="20.80" shape="10.40,-198.40 -10.40,-198.40"/>
    </edge>
    <edge id=":J11_5" function="internal">
        <lane id=":J11_5_0" index="0" disallow="pedestrian" speed="13.89" length="20.96" shape="-10.40,-201.60 -4.41,-202.10 -0.20,-203.20 4.12,-204.30 10.40,-204.80"/>
        <lane id=":J11_5_1" index="1" disallow="pedestrian" speed="13.89" length="20.96" shape="-10.40,-201.60 10.40,-201.60"/>
    </edge>
    <edge id=":J11_7" function="internal">
        <lane id=":J11_7_0" index="0" disallow="pedestrian" speed="9.26" length="19.35" shape="-10.40,-201.60 -5.15,-200.85 -1.40,-198.60 0.85,-194.85 1.60,-189.60"/>
    </edge>
    <edge id=":J12_0" function="internal">
        <lane id=":J12_0_0" index="0" disallow="pedestrian" speed="7.33" length="11.73" shape="98.40,-89.60 97.85,-92.05 96.20,-93.80 93.45,-94.85 89.60,-95.20"/>
    </edge>
    <edge id=":J12_1" function="internal">
        <lane id=":J12_1_0" index="0" disallow="pedestrian" speed="13.89" length="20.96" shape="98.40,-89.60 97.90,-95.59 96.80,-99.80 95.70,-104.12 95.20,-110.40"/>
        <lane id=":J12_1_1" index="1" disallow="pedestrian" speed="13.89" length="20.96" shape="98.40,-89.60 98.40,-110.40"/>
    </edge>
    <edge id=":J12_3" function="internal">
        <lane id=":J12_3_0" index="0" disallow="pedestrian" speed="13.89" length="21.12" shape="104.80,-110.40 104.30,-104.12 103.20,-99.80 102.10,-95.59 101.60,-89.60"/>
    </edge>
    <edge id=":J12_4" function="internal">
        <lane id=":J12_4_0" index="0" disallow="pedestrian" speed="9.26" length="19.35" shape="101.60,-110.40 100.85,-105.15 98.60,-101.40 94.85,-99.15 89.60,-98.40"/>
    </edge>
    <edge id=":J12_5" function="internal">
        <lane id=":J12_5_0" index="0" disallow="pedestrian" speed="6.51" length="9.03" shape="89.60,-104.80 92.05,-105.15 93.80,-106.20 94.85,-107.95 95.20,-110.40"/>
        <lane id=":J12_5_1" index="1" disallow="pedestrian" speed="8.00" length="14.19" shape="89.60,-101.60 93.45,-102.15 96.20,-103.80 97.85,-106.55 98.40,-110.40"/>
    </edge>
    <edge id=":J12_7" function="internal">
        <lane id=":J12_7_0" index="0" disallow="pedestrian" speed="9.26" length="2.51" shape="89.60,-101.60 92.09,-101.24"/>
    </edge>
    <edge id=":J12_8" function="internal">
        <lane id=":J12_8_0" index="0" disallow="pedestrian" speed="9.26" length="16.84" shape="92.09,-101.24 94.85,-100.85 98.60,-98.60 100.85,-94.85 101.60,-89.60"/>
    </edge>
    <edge id=":J13_0" function="internal">
        <lane id=":J13_0_0" index="0" disallow="pedestrian" speed="5.37" length="5.81" shape="95.20,-191.60 94.97,-193.17 94.30,-194.30 93.18,-194.97 91.60,-195.20"/>
        <lane id=":J13_0_1" index="1" disallow="pedestrian" speed="7.10" length="10.97" shape="98.40,-191.60 97.97,-194.58 96.70,-196.70 94.58,-197.98 91.60,-198.40"/>
    </edge>
    <edge id=":J13_2" function="internal">
        <lane id=":J13_2_0" index="0" disallow="pedestrian" speed="9.69" length="21.29" shape="91.60,-204.80 97.38,-203.97 101.50,-201.50 103.97,-197.38 104.80,-191.60"/>
        <lane id=":J13_2_1" index="1" disallow="pedestrian" speed="8.49" length="16.13" shape="91.60,-201.60 95.97,-200.97 99.10,-199.10 100.97,-195.97 101.60,-191.60"/>
    </edge>
    <edge id=":J14_0" function="internal">
        <lane id=":J14_0_0" index="0" disallow="pedestrian" speed="5.99" length="7.49" shape="98.40,5.20 98.05,3.62 97.00,2.50 95.25,1.82 92.80,1.60"/>
    </edge>
    <edge id=":J14_1" function="internal">
        <lane id=":J14_1_0" index="0" disallow="pedestrian" speed="13.89" length="10.40" shape="98.40,5.20 98.40,-5.20"/>
    </edge>
    <edge id=":J14_2" function="internal">
        <lane id=":J14_2_0" index="0" disallow="pedestrian" speed="13.89" length="10.40" shape="101.60,-5.20 101.60,5.20"/>
    </edge>
    <edge id=":J14_3" function="internal">
        <lane id=":J14_3_0" index="0" disallow="pedestrian" speed="7.58" length="3.14" shape="101.60,-5.20 101.05,-2.22 100.98,-2.13"/>
    </edge>
    <edge id=":J14_6" function="internal">
        <lane id=":J14_6_0" index="0" disallow="pedestrian" speed="7.58" length="9.48" shape="100.98,-2.13 99.40,-0.10 96.65,1.18 92.80,1.60"/>
    </edge>
    <edge id=":J14_4" function="internal">
        <lane id=":J14_4_0" index="0" disallow="pedestrian" speed="5.99" length="7.49" shape="92.80,-1.60 95.25,-1.83 97.00,-2.50 98.05,-3.63 98.40,-5.20"/>
    </edge>
    <edge id=":J14_5" function="internal">
        <lane id=":J14_5_0" index="0" disallow="pedestrian" speed="7.58" length="12.62" shape="92.80,-1.60 96.65,-1.17 99.40,0.10 101.05,2.23 101.60,5.20"/>
    </edge>
    <edge id=":J15_0" function="internal">
        <lane id=":J15_0_0" index="0" disallow="pedestrian" speed="7.33" length="11.73" shape="-1.60,10.40 -2.15,7.95 -3.80,6.20 -6.55,5.15 -10.40,4.80"/>
    </edge>
    <edge id=":J15_1" function="internal">
        <lane id=":J15_1_0" index="0" disallow="pedestrian" speed="13.89" length="20.95" shape="-1.60,10.40 -2.10,6.52 -3.20,2.07 -4.30,-3.41 -4.80,-10.40"/>
        <lane id=":J15_1_1" index="1" disallow="pedestrian" speed="13.89" length="20.95" shape="-1.60,10.40 -1.60,-10.40"/>
    </edge>
    <edge id=":J15_3" function="internal">
        <lane id=":J15_3_0" index="0" speed="9.26" length="19.35" shape="-1.60,10.40 -0.85,5.15 1.40,1.40 5.15,-0.85 10.40,-1.60"/>
    </edge>
    <edge id=":J15_4" function="internal">
        <lane id=":J15_4_0" index="0" speed="8.00" length="14.19" shape="10.40,1.60 6.55,2.15 3.80,3.80 2.15,6.55 1.60,10.40"/>
    </edge>
    <edge id=":J15_5" function="internal">
        <lane id=":J15_5_0" index="0" disallow="pedestrian" speed="13.89" length="20.95" shape="10.40,1.60 6.52,2.10 2.07,3.20 -3.41,4.30 -10.40,4.80"/>
        <lane id=":J15_5_1" index="1" disallow="pedestrian" speed="13.89" length="20.95" shape="10.40,1.60 -10.40,1.60"/>
    </edge>
    <edge id=":J15_7" function="internal">
        <lane id=":J15_7_0" index="0" disallow="pedestrian" speed="9.26" length="19.35" shape="10.40,1.60 5.15,0.85 1.40,-1.40 -0.85,-5.15 -1.60,-10.40"/>
    </edge>
    <edge id=":J15_8" function="internal">
        <lane id=":J15_8_0" index="0" disallow="pedestrian" speed="7.33" length="11.73" shape="4.80,-10.40 5.15,-6.55 6.20,-3.80 7.95,-2.15 10.40,-1.60"/>
    </edge>
    <edge id=":J15_9" function="internal">
        <lane id=":J15_9_0" index="0" disallow="pedestrian" speed="13.89" length="21.09" shape="4.80,-10.40 4.30,-3.41 3.20,2.07 2.10,6.52 1.60,10.40"/>
    </edge>
    <edge id=":J15_10" function="internal">
        <lane id=":J15_10_0" index="0" disallow="pedestrian" speed="9.26" length="19.35" shape="1.60,-10.40 0.85,-5.15 -1.40,-1.40 -5.15,0.85 -10.40,1.60"/>
    </edge>
    <edge id=":J15_11" function="internal">
        <lane id=":J15_11_0" index="0" disallow="pedestrian" speed="6.51" length="9.03" shape="-10.40,-4.80 -7.95,-5.15 -6.20,-6.20 -5.15,-7.95 -4.80,-10.40"/>
    </edge>
    <edge id=":J15_12" function="internal">
        <lane id=":J15_12_0" index="0" disallow="pedestrian" speed="13.89" length="21.09" shape="-10.40,-4.80 -3.41,-4.30 2.07,-3.20 6.52,-2.10 10.40,-1.60"/>
    </edge>
    <edge id=":J15_13" function="internal">
        <lane id=":J15_13_0" index="0" disallow="pedestrian" speed="9.26" length="2.51" shape="-10.40,-1.60 -7.91,-1.24"/>
    </edge>
    <edge id=":J15_14" function="internal">
        <lane id=":J15_14_0" index="0" disallow="pedestrian" speed="9.26" length="16.84" shape="-7.91,-1.24 -5.15,-0.85 -1.40,1.40 0.85,5.15 1.60,10.40"/>
    </edge>
    <edge id=":J2_0" function="internal">
        <lane id=":J2_0_0" index="0" disallow="pedestrian" speed="13.89" length="20.96" shape="-89.60,101.60 -95.59,102.10 -99.80,103.20 -104.12,104.30 -110.40,104.80"/>
        <lane id=":J2_0_1" index="1" disallow="pedestrian" speed="13.89" length="20.96" shape="-89.60,101.60 -110.40,101.60"/>
    </edge>
    <edge id=":J2_2" function="internal">
        <lane id=":J2_2_0" index="0" disallow="pedestrian" speed="9.26" length="19.35" shape="-89.60,101.60 -94.85,100.85 -98.60,98.60 -100.85,94.85 -101.60,89.60"/>
    </edge>
    <edge id=":J2_3" function="internal">
        <lane id=":J2_3_0" index="0" disallow="pedestrian" speed="7.33" length="11.73" shape="-95.20,89.60 -94.85,93.45 -93.80,96.20 -92.05,97.85 -89.60,98.40"/>
    </edge>
    <edge id=":J2_4" function="internal">
        <lane id=":J2_4_0" index="0" disallow="pedestrian" speed="9.26" length="19.35" shape="-98.40,89.60 -99.15,94.85 -101.40,98.60 -105.15,100.85 -110.40,101.60"/>
    </edge>
    <edge id=":J2_5" function="internal">
        <lane id=":J2_5_0" index="0" disallow="pedestrian" speed="6.51" length="9.03" shape="-110.40,95.20 -107.95,94.85 -106.20,93.80 -105.15,92.05 -104.80,89.60"/>
        <lane id=":J2_5_1" index="1" disallow="pedestrian" speed="8.00" length="14.19" shape="-110.40,98.40 -106.55,97.85 -103.80,96.20 -102.15,93.45 -101.60,89.60"/>
    </edge>
    <edge id=":J2_7" function="internal">
        <lane id=":J2_7_0" index="0" disallow="pedestrian" speed="13.89" length="20.80" shape="-110.40,98.40 -89.60,98.40"/>
    </edge>
    <edge id=":J3_0" function="internal">
        <lane id=":J3_0_0" index="0" disallow="pedestrian" speed="9.69" length="21.29" shape="-191.60,104.80 -197.38,103.97 -201.50,101.50 -203.98,97.38 -204.80,91.60"/>
        <lane id=":J3_0_1" index="1" disallow="pedestrian" speed="8.49" length="16.13" shape="-191.60,101.60 -195.97,100.97 -199.10,99.10 -200.97,95.97 -201.60,91.60"/>
    </edge>
    <edge id=":J3_2" function="internal">
        <lane id=":J3_2_0" index="0" disallow="pedestrian" speed="5.37" length="5.81" shape="-195.20,91.60 -194.97,93.18 -194.30,94.30 -193.17,94.98 -191.60,95.20"/>
        <lane id=":J3_2_1" index="1" disallow="pedestrian" speed="7.10" length="10.97" shape="-198.40,91.60 -197.97,94.58 -196.70,96.70 -194.57,97.98 -191.60,98.40"/>
    </edge>
    <edge id=":J4_0" function="internal">
        <lane id=":J4_0_0" index="0" disallow="pedestrian" speed="13.89" length="21.12" shape="-204.80,10.40 -204.30,4.12 -203.20,-0.20 -202.10,-4.41 -201.60,-10.40"/>
    </edge>
    <edge id=":J4_1" function="internal">
        <lane id=":J4_1_0" index="0" disallow="pedestrian" speed="9.26" length="19.35" shape="-201.60,10.40 -200.85,5.15 -198.60,1.40 -194.85,-0.85 -189.60,-1.60"/>
    </edge>
    <edge id=":J4_2" function="internal">
        <lane id=":J4_2_0" index="0" disallow="pedestrian" speed="6.51" length="9.03" shape="-189.60,4.80 -192.05,5.15 -193.80,6.20 -194.85,7.95 -195.20,10.40"/>
        <lane id=":J4_2_1" index="1" disallow="pedestrian" speed="8.00" length="14.19" shape="-189.60,1.60 -193.45,2.15 -196.20,3.80 -197.85,6.55 -198.40,10.40"/>
    </edge>
    <edge id=":J4_4" function="internal">
        <lane id=":J4_4_0" index="0" disallow="pedestrian" speed="9.26" length="2.51" shape="-189.60,1.60 -192.09,1.24"/>
    </edge>
    <edge id=":J4_8" function="internal">
        <lane id=":J4_8_0" index="0" disallow="pedestrian" speed="9.26" length="16.84" shape="-192.09,1.24 -194.85,0.85 -198.60,-1.40 -200.85,-5.15 -201.60,-10.40"/>
    </edge>
    <edge id=":J4_5" function="internal">
        <lane id=":J4_5_0" index="0" disallow="pedestrian" speed="7.33" length="11.73" shape="-198.40,-10.40 -197.85,-7.95 -196.20,-6.20 -193.45,-5.15 -189.60,-4.80"/>
    </edge>
    <edge id=":J4_6" function="internal">
        <lane id=":J4_6_0" index="0" disallow="pedestrian" speed="13.89" length="20.96" shape="-198.40,-10.40 -197.90,-4.41 -196.80,-0.20 -195.70,4.12 -195.20,10.40"/>
        <lane id=":J4_6_1" index="1" disallow="pedestrian" speed="13.89" length="20.96" shape="-198.40,-10.40 -198.40,10.40"/>
    </edge>
    <edge id=":J5_0" function="internal">
        <lane id=":J5_0_0" index="0" disallow="pedestrian" speed="13.89" length="10.40" shape="-201.60,-94.80 -201.60,-105.20"/>
    </edge>
    <edge id=":J5_1" function="internal">
        <lane id=":J5_1_0" index="0" disallow="pedestrian" speed="7.58" length="3.14" shape="-201.60,-94.80 -201.05,-97.78 -200.98,-97.87"/>
    </edge>
    <edge id=":J5_6" function="internal">
        <lane id=":J5_6_0" index="0" disallow="pedestrian" speed="7.58" length="9.48" shape="-200.98,-97.87 -199.40,-99.90 -196.65,-101.18 -192.80,-101.60"/>
    </edge>
    <edge id=":J5_2" function="internal">
        <lane id=":J5_2_0" index="0" disallow="pedestrian" speed="5.99" length="7.49" shape="-192.80,-98.40 -195.25,-98.17 -197.00,-97.50 -198.05,-96.38 -198.40,-94.80"/>
    </edge>
    <edge id=":J5_3" function="internal">
        <lane id=":J5_3_0" index="0" disallow="pedestrian" speed="7.58" length="12.62" shape="-192.80,-98.40 -196.65,-98.83 -199.40,-100.10 -201.05,-102.22 -201.60,-105.20"/>
    </edge>
    <edge id=":J5_4" function="internal">
        <lane id=":J5_4_0" index="0" disallow="pedestrian" speed="5.99" length="7.49" shape="-198.40,-105.20 -198.05,-103.62 -197.00,-102.50 -195.25,-101.82 -192.80,-101.60"/>
    </edge>
    <edge id=":J5_5" function="internal">
        <lane id=":J5_5_0" index="0" disallow="pedestrian" speed="13.89" length="10.40" shape="-198.40,-105.20 -198.40,-94.80"/>
    </edge>
    <edge id=":J6_0" function="internal">
        <lane id=":J6_0_0" index="0" disallow="pedestrian" speed="7.10" length="10.97" shape="-201.60,-194.80 -201.18,-197.78 -199.90,-199.90 -197.77,-201.18 -194.80,-201.60"/>
    </edge>
    <edge id=":J6_1" function="internal">
        <lane id=":J6_1_0" index="0" disallow="pedestrian" speed="5.37" length="5.81" shape="-194.80,-198.40 -196.38,-198.18 -197.50,-197.50 -198.18,-196.38 -198.40,-194.80"/>
    </edge>
    <edge id=":J7_0" function="internal">
        <lane id=":J7_0_0" index="0" disallow="pedestrian" speed="5.99" length="7.49" shape="-101.60,-192.80 -101.83,-195.25 -102.50,-197.00 -103.62,-198.05 -105.20,-198.40"/>
    </edge>
    <edge id=":J7_1" function="internal">
        <lane id=":J7_1_0" index="0" disallow="pedestrian" speed="7.58" length="12.62" shape="-101.60,-192.80 -101.17,-196.65 -99.90,-199.40 -97.78,-201.05 -94.80,-201.60"/>
    </edge>
    <edge id=":J7_2" function="internal">
        <lane id=":J7_2_0" index="0" disallow="pedestrian" speed="5.99" length="7.49" shape="-94.80,-198.40 -96.38,-198.05 -97.50,-197.00 -98.18,-195.25 -98.40,-192.80"/>
    </edge>
    <edge id=":J7_3" function="internal">
        <lane id=":J7_3_0" index="0" disallow="pedestrian" speed="13.89" length="10.40" shape="-94.80,-198.40 -105.20,-198.40"/>
    </edge>
    <edge id=":J7_4" function="internal">
        <lane id=":J7_4_0" index="0" disallow="pedestrian" speed="13.89" length="10.40" shape="-105.20,-201.60 -94.80,-201.60"/>
    </edge>
    <edge id=":J7_5" function="internal">
        <lane id=":J7_5_0" index="0" disallow="pedestrian" speed="7.58" length="3.14" shape="-105.20,-201.60 -102.23,-201.05 -102.13,-200.98"/>
    </edge>
    <edge id=":J7_6" function="internal">
        <lane id=":J7_6_0" index="0" disallow="pedestrian" speed="7.58" length="9.48" shape="-102.13,-200.98 -100.10,-199.40 -98.83,-196.65 -98.40,-192.80"/>
    </edge>
    <edge id=":J8_0" function="internal">
        <lane id=":J8_0_0" index="0" disallow="pedestrian" speed="7.33" length="11.73" shape="-104.80,-89.60 -105.15,-93.45 -106.20,-96.20 -107.95,-97.85 -110.40,-98.40"/>
    </edge>
    <edge id=":J8_1" function="internal">
        <lane id=":J8_1_0" index="0" disallow="pedestrian" speed="13.89" length="21.09" shape="-104.80,-89.60 -104.30,-96.59 -103.20,-102.07 -102.10,-106.52 -101.60,-110.40"/>
    </edge>
    <edge id=":J8_2" function="internal">
        <lane id=":J8_2_0" index="0" disallow="pedestrian" speed="9.26" length="19.35" shape="-101.60,-89.60 -100.85,-94.85 -98.60,-98.60 -94.85,-100.85 -89.60,-101.60"/>
    </edge>
    <edge id=":J8_3" function="internal">
        <lane id=":J8_3_0" index="0" disallow="pedestrian" speed="6.51" length="9.03" shape="-89.60,-95.20 -92.05,-94.85 -93.80,-93.80 -94.85,-92.05 -95.20,-89.60"/>
    </edge>
    <edge id=":J8_4" function="internal">
        <lane id=":J8_4_0" index="0" disallow="pedestrian" speed="13.89" length="21.09" shape="-89.60,-95.20 -96.59,-95.70 -102.07,-96.80 -106.52,-97.90 -110.40,-98.40"/>
    </edge>
    <edge id=":J8_5" function="internal">
        <lane id=":J8_5_0" index="0" disallow="pedestrian" speed="9.26" length="2.51" shape="-89.60,-98.40 -92.09,-98.76"/>
    </edge>
    <edge id=":J8_14" function="internal">
        <lane id=":J8_14_0" index="0" disallow="pedestrian" speed="9.26" length="16.84" shape="-92.09,-98.76 -94.85,-99.15 -98.60,-101.40 -100.85,-105.15 -101.60,-110.40"/>
    </edge>
    <edge id=":J8_6" function="internal">
        <lane id=":J8_6_0" index="0" disallow="pedestrian" speed="7.33" length="11.73" shape="-98.40,-110.40 -97.85,-107.95 -96.20,-106.20 -93.45,-105.15 -89.60,-104.80"/>
    </edge>
    <edge id=":J8_7" function="internal">
        <lane id=":J8_7_0" index="0" disallow="pedestrian" speed="13.89" length="20.95" shape="-98.40,-110.40 -97.90,-106.52 -96.80,-102.07 -95.70,-96.59 -95.20,-89.60"/>
        <lane id=":J8_7_1" index="1" disallow="pedestrian" speed="13.89" length="20.95" shape="-98.40,-110.40 -98.40,-89.60"/>
    </edge>
    <edge id=":J8_9" function="internal">
        <lane id=":J8_9_0" index="0" speed="9.26" length="19.35" shape="-98.40,-110.40 -99.15,-105.15 -101.40,-101.40 -105.15,-99.15 -110.40,-98.40"/>
    </edge>
    <edge id=":J8_10" function="internal">
        <lane id=":J8_10_0" index="0" speed="8.00" length="14.19" shape="-110.40,-101.60 -106.55,-102.15 -103.80,-103.80 -102.15,-106.55 -101.60,-110.40"/>
    </edge>
    <edge id=":J8_11" function="internal">
        <lane id=":J8_11_0" index="0" disallow="pedestrian" speed="13.89" length="20.95" shape="-110.40,-101.60 -106.52,-102.10 -102.07,-103.20 -96.59,-104.30 -89.60,-104.80"/>
        <lane id=":J8_11_1" index="1" disallow="pedestrian" speed="13.89" length="20.95" shape="-110.40,-101.60 -89.60,-101.60"/>
    </edge>
    <edge id=":J8_13" function="internal">
        <lane id=":J8_13_0" index="0" disallow="pedestrian" speed="9.26" length="19.35" shape="-110.40,-101.60 -105.15,-100.85 -101.40,-98.60 -99.15,-94.85 -98.40,-89.60"/>
    </edge>
    <edge id=":J9_0" function="internal">
        <lane id=":J9_0_0" index="0" disallow="pedestrian" speed="6.51" length="9.03" shape="-104.80,10.40 -105.15,7.95 -106.20,6.20 -107.95,5.15 -110.40,4.80"/>
    </edge>
    <edge id=":J9_1" function="internal">
        <lane id=":J9_1_0" index="0" disallow="pedestrian" speed="13.89" length="20.80" shape="-104.80,10.40 -104.80,-10.40"/>
        <lane id=":J9_1_1" index="1" disallow="pedestrian" speed="13.89" length="20.80" shape="-101.60,10.40 -101.60,-10.40"/>
    </edge>
    <edge id=":J9_3" function="internal">
        <lane id=":J9_3_0" index="0" disallow="pedestrian" speed="9.26" length="5.01" shape="-101.60,10.40 -100.89,5.44"/>
    </edge>
    <edge id=":J9_16" function="internal">
        <lane id=":J9_16_0" index="0" disallow="pedestrian" speed="9.26" length="14.34" shape="-100.89,5.44 -100.85,5.15 -98.60,1.40 -94.85,-0.85 -89.60,-1.60"/>
    </edge>
    <edge id=":J9_4" function="internal">
        <lane id=":J9_4_0" index="0" disallow="pedestrian" speed="6.51" length="9.03" shape="-89.60,4.80 -92.05,5.15 -93.80,6.20 -94.85,7.95 -95.20,10.40"/>
    </edge>
    <edge id=":J9_5" function="internal">
        <lane id=":J9_5_0" index="0" disallow="pedestrian" speed="13.89" length="20.80" shape="-89.60,4.80 -110.40,4.80"/>
        <lane id=":J9_5_1" index="1" disallow="pedestrian" speed="13.89" length="20.80" shape="-89.60,1.60 -110.40,1.60"/>
    </edge>
    <edge id=":J9_7" function="internal">
        <lane id=":J9_7_0" index="0" disallow="pedestrian" speed="9.26" length="19.35" shape="-89.60,1.60 -94.85,0.85 -98.60,-1.40 -100.85,-5.15 -101.60,-10.40"/>
    </edge>
    <edge id=":J9_8" function="internal">
        <lane id=":J9_8_0" index="0" disallow="pedestrian" speed="6.51" length="9.03" shape="-95.20,-10.40 -94.85,-7.95 -93.80,-6.20 -92.05,-5.15 -89.60,-4.80"/>
    </edge>
    <edge id=":J9_9" function="internal">
        <lane id=":J9_9_0" index="0" disallow="pedestrian" speed="13.89" length="20.80" shape="-95.20,-10.40 -95.20,10.40"/>
        <lane id=":J9_9_1" index="1" disallow="pedestrian" speed="13.89" length="20.80" shape="-98.40,-10.40 -98.40,10.40"/>
    </edge>
    <edge id=":J9_11" function="internal">
        <lane id=":J9_11_0" index="0" disallow="pedestrian" speed="9.26" length="5.01" shape="-98.40,-10.40 -99.11,-5.44"/>
    </edge>
    <edge id=":J9_17" function="internal">
        <lane id=":J9_17_0" index="0" disallow="pedestrian" speed="9.26" length="14.34" shape="-99.11,-5.44 -99.15,-5.15 -101.40,-1.40 -105.15,0.85 -110.40,1.60"/>
    </edge>
    <edge id=":J9_12" function="internal">
        <lane id=":J9_12_0" index="0" disallow="pedestrian" speed="6.51" length="9.03" shape="-110.40,-4.80 -107.95,-5.15 -106.20,-6.20 -105.15,-7.95 -104.80,-10.40"/>
    </edge>
    <edge id=":J9_13" function="internal">
        <lane id=":J9_13_0" index="0" disallow="pedestrian" speed="13.89" length="20.80" shape="-110.40,-4.80 -89.60,-4.80"/>
        <lane id=":J9_13_1" index="1" disallow="pedestrian" speed="13.89" length="20.80" shape="-110.40,-1.60 -89.60,-1.60"/>
    </edge>
    <edge id=":J9_15" function="internal">