<?xml version="1.0" encoding="UTF-8"?>

<!-- generated on 2025-04-05 11:06:07 by Eclipse SUMO netedit Version 1.22.0
<neteditConfiguration xmlns:xsi="http://www.w3.org/2001/XMLSchema-instance" xsi:noNamespaceSchemaLocation="http://sumo.dlr.de/xsd/neteditConfiguration.xsd">

    <input>
        <sumo-net-file value="F:\Programs\eclipse\Sumo\workspace\grid3x3-pedestrians-v0.1\grid3x3.net.xml"/>
    </input>

    <output>
        <output-file value="F:\Programs\eclipse\Sumo\workspace\grid3x3-pedestrians-v0.1\grid3x3.net.xml"/>
    </output>

    <processing>
        <offset.disable-normalization value="true"/>
    </processing>

    <junctions>
        <no-internal-links value="false"/>
        <no-turnarounds value="true"/>
    </junctions>

    <netedit>
        <new-network value="false"/>
    </netedit>

</neteditConfiguration>
-->

<net version="1.20" junctionCornerDetail="5" limitTurnSpeed="5.50" xmlns:xsi="http://www.w3.org/2001/XMLSchema-instance" xsi:noNamespaceSchemaLocation="http://sumo.dlr.de/xsd/net_file.xsd">

    <location netOffset="0.00,0.00" convBoundary="-300.00,-200.00,0.00,100.00" origBoundary="10000000000.00,10000000000.00,-10000000000.00,-10000000000.00" projParameter="!"/>

    <edge id=":J1_0" function="internal">
        <lane id=":J1_0_0" index="0" disallow="pedestrian" speed="7.10" length="10.97" shape="-294.80,101.60 -297.78,101.17 -299.90,99.90 -301.18,97.78 -301.60,94.80"/>
    </edge>
    <edge id=":J1_1" function="internal">
        <lane id=":J1_1_0" index="0" disallow="pedestrian" speed="5.37" length="5.81" shape="-298.40,94.80 -298.18,96.38 -297.50,97.50 -296.38,98.18 -294.80,98.40"/>
    </edge>
    <edge id=":J1_c0" function="crossing" crossingEdges="E0 -E0">
        <lane id=":J1_c0_0" index="0" allow="pedestrian" speed="2.78" length="6.40" width="4.00" shape="-296.80,96.80 -296.80,103.20" outlineShape="-294.80,96.70 -294.80,103.30 -298.80,104.64 -297.98,104.91 -294.80,105.20 -294.80,103.20 -298.80,103.20 -298.80,96.80 -296.80,94.80 -296.74,95.41 -296.58,95.91 -296.30,96.30 -295.91,96.58 -295.41,96.74"/>
    </edge>
    <edge id=":J1_c1" function="crossing" crossingEdges="-E11 E11">
        <lane id=":J1_c1_0" index="0" allow="pedestrian" speed="2.78" length="6.40" width="4.00" shape="-303.20,96.80 -296.80,96.80" outlineShape="-303.20,94.80 -296.80,94.80 -294.80,96.80 -294.80,94.80 -296.80,94.80 -296.80,98.80 -303.20,98.80 -304.64,98.80 -304.04,100.58 -302.60,102.60 -300.58,104.04 -297.98,104.91 -294.80,105.20 -294.80,103.20 -297.37,102.97 -299.47,102.27 -301.10,101.10 -302.27,99.47 -302.97,97.37"/>
    </edge>
    <edge id=":J1_w0" function="walkingarea">
        <lane id=":J1_w0_0" index="0" allow="pedestrian" speed="2.78" length="8.20" width="4.00" shape="-303.20,94.80 -305.20,94.80 -304.91,97.98 -304.04,100.58 -302.60,102.60 -300.58,104.04 -297.98,104.91 -294.80,105.20 -294.80,103.20 -297.37,102.97 -299.47,102.27 -301.10,101.10 -302.27,99.47 -302.97,97.37"/>
    </edge>
    <edge id=":J1_w1" function="walkingarea">
        <lane id=":J1_w1_0" index="0" allow="pedestrian" speed="2.78" length="1.73" width="4.00" shape="-294.80,96.80 -294.80,94.80 -296.80,94.80 -296.74,95.41 -296.58,95.91 -296.30,96.30 -295.91,96.58 -295.41,96.74"/>
    </edge>
    <edge id=":J10_0" function="internal">
        <lane id=":J10_0_0" index="0" disallow="pedestrian" speed="7.10" length="10.97" shape="-301.60,-194.80 -301.18,-197.78 -299.90,-199.90 -297.78,-201.17 -294.80,-201.60"/>
    </edge>
    <edge id=":J10_1" function="internal">
        <lane id=":J10_1_0" index="0" disallow="pedestrian" speed="5.37" length="5.81" shape="-294.80,-198.40 -296.38,-198.18 -297.50,-197.50 -298.17,-196.38 -298.40,-194.80"/>
    </edge>
    <edge id=":J10_c0" function="crossing" crossingEdges="E9 -E9">
        <lane id=":J10_c0_0" index="0" allow="pedestrian" speed="2.78" length="6.40" width="4.00" shape="-296.80,-196.80 -303.20,-196.80" outlineShape="-296.80,-194.80 -303.20,-194.80 -304.64,-198.80 -304.91,-197.98 -305.20,-194.80 -303.20,-194.80 -303.20,-198.80 -296.80,-198.80 -294.80,-196.80 -295.41,-196.74 -295.91,-196.58 -296.30,-196.30 -296.58,-195.91 -296.74,-195.41"/>
    </edge>
    <edge id=":J10_c1" function="crossing" crossingEdges="-E8 E8">
        <lane id=":J10_c1_0" index="0" allow="pedestrian" speed="2.78" length="6.40" width="4.00" shape="-296.80,-203.20 -296.80,-196.80" outlineShape="-294.80,-203.30 -294.80,-196.70 -296.80,-194.80 -294.80,-194.80 -294.80,-196.70 -298.80,-196.80 -298.80,-203.20 -298.80,-204.64 -300.58,-204.04 -302.60,-202.60 -304.04,-200.58 -304.91,-197.98 -305.20,-194.80 -303.20,-194.80 -302.97,-197.37 -302.27,-199.47 -301.10,-201.10 -299.47,-202.27 -297.37,-202.97"/>
    </edge>
    <edge id=":J10_w0" function="walkingarea">
        <lane id=":J10_w0_0" index="0" allow="pedestrian" speed="2.78" length="8.20" width="4.00" shape="-294.80,-203.20 -294.80,-205.20 -297.98,-204.91 -300.58,-204.04 -302.60,-202.60 -304.04,-200.58 -304.91,-197.98 -305.20,-194.80 -303.20,-194.80 -302.97,-197.37 -302.27,-199.47 -301.10,-201.10 -299.47,-202.27 -297.37,-202.97"/>
    </edge>
    <edge id=":J10_w1" function="walkingarea">
        <lane id=":J10_w1_0" index="0" allow="pedestrian" speed="2.78" length="1.73" width="4.00" shape="-296.80,-194.80 -294.80,-194.80 -294.80,-196.80 -295.41,-196.74 -295.91,-196.58 -296.30,-196.30 -296.58,-195.91 -296.74,-195.41"/>
    </edge>
    <edge id=":J11_0" function="internal">
        <lane id=":J11_0_0" index="0" disallow="pedestrian" speed="13.89" length="14.40" shape="-301.60,-92.80 -301.60,-107.20"/>
    </edge>
    <edge id=":J11_1" function="internal">
        <lane id=":J11_1_0" index="0" disallow="pedestrian" speed="8.00" length="4.07" shape="-301.60,-92.80 -301.05,-96.65 -300.96,-96.80"/>
    </edge>
    <edge id=":J11_6" function="internal">
        <lane id=":J11_6_0" index="0" disallow="pedestrian" speed="8.00" length="10.13" shape="-300.96,-96.80 -299.40,-99.40 -296.65,-101.05 -292.80,-101.60"/>
    </edge>
    <edge id=":J11_2" function="internal">
        <lane id=":J11_2_0" index="0" disallow="pedestrian" speed="6.51" length="4.75" shape="-292.80,-98.40 -295.25,-98.05 -297.00,-97.00 -297.12,-96.80"/>
    </edge>
    <edge id=":J11_3" function="internal">
        <lane id=":J11_3_0" index="0" disallow="pedestrian" speed="8.00" length="10.13" shape="-292.80,-98.40 -296.65,-98.95 -299.40,-100.60 -300.96,-103.20"/>
    </edge>
    <edge id=":J11_7" function="internal">
        <lane id=":J11_7_0" index="0" disallow="pedestrian" speed="6.51" length="4.28" shape="-297.12,-96.80 -298.05,-95.25 -298.40,-92.80"/>
    </edge>
    <edge id=":J11_8" function="internal">
        <lane id=":J11_8_0" index="0" disallow="pedestrian" speed="8.00" length="4.06" shape="-300.96,-103.20 -301.05,-103.35 -301.60,-107.20"/>
    </edge>
    <edge id=":J11_4" function="internal">
        <lane id=":J11_4_0" index="0" disallow="pedestrian" speed="6.51" length="4.75" shape="-298.40,-107.20 -298.05,-104.75 -297.00,-103.00 -296.80,-102.88"/>
    </edge>
    <edge id=":J11_5" function="internal">
        <lane id=":J11_5_0" index="0" disallow="pedestrian" speed="13.89" length="14.40" shape="-298.40,-107.20 -298.40,-92.80"/>
    </edge>
    <edge id=":J11_9" function="internal">
        <lane id=":J11_9_0" index="0" disallow="pedestrian" speed="6.51" length="4.28" shape="-296.80,-102.88 -295.25,-101.95 -292.80,-101.60"/>
    </edge>
    <edge id=":J11_c0" function="crossing" crossingEdges="E10 -E10">
        <lane id=":J11_c0_0" index="0" allow="pedestrian" speed="2.78" length="6.40" width="4.00" shape="-296.80,-94.80 -303.20,-94.80" outlineShape="-296.80,-92.80 -303.20,-92.80 -303.20,-96.80 -292.80,-96.80 -294.02,-96.69 -295.02,-96.36 -295.80,-95.80 -296.36,-95.02 -296.69,-94.02"/>
    </edge>
    <edge id=":J11_c1" function="crossing" crossingEdges="-E23 E23">
        <lane id=":J11_c1_0" index="0" allow="pedestrian" speed="2.78" length="6.40" width="4.00" shape="-294.80,-103.20 -294.80,-96.80" outlineShape="-292.80,-103.30 -292.80,-96.70 -294.02,-96.69 -295.02,-96.36 -295.80,-95.80 -296.36,-95.02 -296.47,-94.69 -296.80,-96.80 -296.80,-103.20 -296.47,-105.31 -296.36,-104.98 -295.80,-104.20 -295.02,-103.64 -294.02,-103.31"/>
    </edge>
    <edge id=":J11_c2" function="crossing" crossingEdges="-E9 E9">
        <lane id=":J11_c2_0" index="0" allow="pedestrian" speed="2.78" length="6.40" width="4.00" shape="-303.20,-105.20 -296.80,-105.20" outlineShape="-303.20,-107.20 -296.80,-107.20 -292.80,-103.20 -292.80,-105.20 -294.80,-107.20 -296.80,-107.20 -292.80,-103.20 -303.20,-103.20"/>
    </edge>
    <edge id=":J11_w0" function="walkingarea">
        <lane id=":J11_w0_0" index="0" allow="pedestrian" speed="2.78" length="9.03" width="4.00" shape="-303.20,-103.20 -303.20,-107.20 -305.20,-107.20 -305.20,-92.80 -303.20,-92.80 -303.20,-96.80"/>
    </edge>
    <edge id=":J11_w1" function="walkingarea">
        <lane id=":J11_w1_0" index="0" allow="pedestrian" speed="2.78" length="3.30" width="4.00" shape="-296.80,-92.80 -294.80,-92.80 -292.80,-94.80 -292.80,-96.80 -294.02,-96.69 -295.02,-96.36 -295.80,-95.80 -296.36,-95.02 -296.69,-94.02"/>
    </edge>
    <edge id=":J11_w2" function="walkingarea">
        <lane id=":J11_w2_0" index="0" allow="pedestrian" speed="2.78" length="3.30" width="4.00" shape="-292.80,-103.20 -292.80,-105.20 -294.80,-107.20 -296.80,-107.20 -296.69,-105.98 -296.36,-104.98 -295.80,-104.20 -295.02,-103.64 -294.02,-103.31"/>
    </edge>
    <edge id=":J12_0" function="internal">
        <lane id=":J12_0_0" index="0" disallow="pedestrian" speed="13.89" length="14.40" shape="-301.60,7.20 -301.60,-7.20"/>
    </edge>
    <edge id=":J12_1" function="internal">
        <lane id=":J12_1_0" index="0" disallow="pedestrian" speed="8.00" length="4.07" shape="-301.60,7.20 -301.05,3.35 -300.96,3.20"/>
    </edge>
    <edge id=":J12_6" function="internal">
        <lane id=":J12_6_0" index="0" disallow="pedestrian" speed="8.00" length="10.13" shape="-300.96,3.20 -299.40,0.60 -296.65,-1.05 -292.80,-1.60"/>
    </edge>
    <edge id=":J12_2" function="internal">
        <lane id=":J12_2_0" index="0" disallow="pedestrian" speed="6.51" length="4.75" shape="-292.80,1.60 -295.25,1.95 -297.00,3.00 -297.12,3.20"/>
    </edge>
    <edge id=":J12_3" function="internal">
        <lane id=":J12_3_0" index="0" disallow="pedestrian" speed="8.00" length="10.13" shape="-292.80,1.60 -296.65,1.05 -299.40,-0.60 -300.96,-3.20"/>
    </edge>
    <edge id=":J12_7" function="internal">
        <lane id=":J12_7_0" index="0" disallow="pedestrian" speed="6.51" length="4.28" shape="-297.12,3.20 -298.05,4.75 -298.40,7.20"/>
    </edge>
    <edge id=":J12_8" function="internal">
        <lane id=":J12_8_0" index="0" disallow="pedestrian" speed="8.00" length="4.06" shape="-300.96,-3.20 -301.05,-3.35 -301.60,-7.20"/>
    </edge>
    <edge id=":J12_4" function="internal">
        <lane id=":J12_4_0" index="0" disallow="pedestrian" speed="6.51" length="4.75" shape="-298.40,-7.20 -298.05,-4.75 -297.00,-3.00 -296.80,-2.88"/>
    </edge>
    <edge id=":J12_5" function="internal">
        <lane id=":J12_5_0" index="0" disallow="pedestrian" speed="13.89" length="14.40" shape="-298.40,-7.20 -298.40,7.20"/>
    </edge>
    <edge id=":J12_9" function="internal">
        <lane id=":J12_9_0" index="0" disallow="pedestrian" speed="6.51" length="4.28" shape="-296.80,-2.88 -295.25,-1.95 -292.80,-1.60"/>
    </edge>
    <edge id=":J12_c0" function="crossing" crossingEdges="E11 -E11">
        <lane id=":J12_c0_0" index="0" allow="pedestrian" speed="2.78" length="6.40" width="4.00" shape="-296.80,5.20 -303.20,5.20" outlineShape="-296.80,7.20 -303.20,7.20 -303.20,3.20 -292.80,3.20 -294.02,3.31 -295.02,3.64 -295.80,4.20 -296.36,4.98 -296.69,5.98"/>
    </edge>
    <edge id=":J12_c1" function="crossing" crossingEdges="-E19 E19">
        <lane id=":J12_c1_0" index="0" allow="pedestrian" speed="2.78" length="6.40" width="4.00" shape="-294.80,-3.20 -294.80,3.20" outlineShape="-292.80,-3.20 -292.80,3.20 -294.02,3.31 -295.02,3.64 -295.80,4.20 -296.36,4.98 -296.47,5.31 -296.80,3.20 -296.80,-3.20 -296.47,-5.31 -296.36,-4.98 -295.80,-4.20 -295.02,-3.64 -294.02,-3.31"/>
    </edge>
    <edge id=":J12_c2" function="crossing" crossingEdges="-E10 E10">
        <lane id=":J12_c2_0" index="0" allow="pedestrian" speed="2.78" length="6.40" width="4.00" shape="-303.20,-5.20 -296.80,-5.20" outlineShape="-303.20,-7.20 -296.70,-7.20 -292.80,-3.20 -292.80,-5.20 -294.80,-7.20 -296.60,-7.20 -292.80,-3.20 -303.20,-3.20 -303.30,-7.20 -305.20,-7.20 -305.20,7.20 -303.20,7.20 -303.20,3.20 -303.20,-3.20"/>
    </edge>
    <edge id=":J12_w0" function="walkingarea">
        <lane id=":J12_w0_0" index="0" allow="pedestrian" speed="2.78" length="9.03" width="4.00" shape="-303.20,-3.20 -303.20,-7.20 -305.20,-7.20 -305.20,7.20 -303.20,7.20 -303.20,3.20"/>
    </edge>
    <edge id=":J12_w1" function="walkingarea">
        <lane id=":J12_w1_0" index="0" allow="pedestrian" speed="2.78" length="3.30" width="4.00" shape="-296.80,7.20 -294.80,7.20 -292.80,5.20 -292.80,3.20 -294.02,3.31 -295.02,3.64 -295.80,4.20 -296.36,4.98 -296.69,5.98"/>
    </edge>
    <edge id=":J12_w2" function="walkingarea">
        <lane id=":J12_w2_0" index="0" allow="pedestrian" speed="2.78" length="3.30" width="4.00" shape="-292.80,-3.20 -292.80,-5.20 -294.80,-7.20 -296.80,-7.20 -296.69,-5.98 -296.36,-4.98 -295.80,-4.20 -295.02,-3.64 -294.02,-3.31"/>
    </edge>
    <edge id=":J13_0" function="internal">
        <lane id=":J13_0_0" index="0" disallow="pedestrian" speed="6.51" length="4.75" shape="-201.60,7.20 -201.95,4.75 -203.00,3.00 -203.20,2.88"/>
    </edge>
    <edge id=":J13_1" function="internal">
        <lane id=":J13_1_0" index="0" disallow="pedestrian" speed="13.89" length="14.40" shape="-201.60,7.20 -201.60,-7.20"/>
    </edge>
    <edge id=":J13_2" function="internal">
        <lane id=":J13_2_0" index="0" disallow="pedestrian" speed="8.00" length="4.07" shape="-201.60,7.20 -201.05,3.35 -200.96,3.20"/>
    </edge>
    <edge id=":J13_12" function="internal">
        <lane id=":J13_12_0" index="0" disallow="pedestrian" speed="6.51" length="4.28" shape="-203.20,2.88 -204.75,1.95 -207.20,1.60"/>
    </edge>
    <edge id=":J13_13" function="internal">
        <lane id=":J13_13_0" index="0" disallow="pedestrian" speed="8.00" length="10.13" shape="-200.96,3.20 -199.40,0.60 -196.65,-1.05 -192.80,-1.60"/>
    </edge>
    <edge id=":J13_3" function="internal">
        <lane id=":J13_3_0" index="0" disallow="pedestrian" speed="6.51" length="4.75" shape="-192.80,1.60 -195.25,1.95 -197.00,3.00 -197.12,3.20"/>
    </edge>
    <edge id=":J13_4" function="internal">
        <lane id=":J13_4_0" index="0" disallow="pedestrian" speed="13.89" length="14.40" shape="-192.80,1.60 -207.20,1.60"/>
    </edge>
    <edge id=":J13_5" function="internal">
        <lane id=":J13_5_0" index="0" disallow="pedestrian" speed="8.00" length="4.07" shape="-192.80,1.60 -196.65,1.05 -196.80,0.96"/>
    </edge>
    <edge id=":J13_14" function="internal">
        <lane id=":J13_14_0" index="0" disallow="pedestrian" speed="6.51" length="4.28" shape="-197.12,3.20 -198.05,4.75 -198.40,7.20"/>
    </edge>
    <edge id=":J13_15" function="internal">
        <lane id=":J13_15_0" index="0" disallow="pedestrian" speed="8.00" length="10.13" shape="-196.80,0.96 -199.40,-0.60 -201.05,-3.35 -201.60,-7.20"/>
    </edge>
    <edge id=":J13_6" function="internal">
        <lane id=":J13_6_0" index="0" disallow="pedestrian" speed="6.51" length="4.75" shape="-198.40,-7.20 -198.05,-4.75 -197.00,-3.00 -196.80,-2.88"/>
    </edge>
    <edge id=":J13_7" function="internal">
        <lane id=":J13_7_0" index="0" disallow="pedestrian" speed="13.89" length="14.40" shape="-198.40,-7.20 -198.40,7.20"/>
    </edge>
    <edge id=":J13_8" function="internal">
        <lane id=":J13_8_0" index="0" disallow="pedestrian" speed="8.00" length="4.07" shape="-198.40,-7.20 -198.95,-3.35 -199.04,-3.20"/>
    </edge>
    <edge id=":J13_16" function="internal">
        <lane id=":J13_16_0" index="0" disallow="pedestrian" speed="6.51" length="4.28" shape="-196.80,-2.88 -195.25,-1.95 -192.80,-1.60"/>
    </edge>
    <edge id=":J13_17" function="internal">
        <lane id=":J13_17_0" index="0" disallow="pedestrian" speed="8.00" length="10.13" shape="-199.04,-3.20 -200.60,-0.60 -203.35,1.05 -207.20,1.60"/>
    </edge>
    <edge id=":J13_9" function="internal">
        <lane id=":J13_9_0" index="0" disallow="pedestrian" speed="6.51" length="4.75" shape="-207.20,-1.60 -204.75,-1.95 -203.00,-3.00 -202.88,-3.20"/>
    </edge>
    <edge id=":J13_10" function="internal">
        <lane id=":J13_10_0" index="0" disallow="pedestrian" speed="13.89" length="14.40" shape="-207.20,-1.60 -192.80,-1.60"/>
    </edge>
    <edge id=":J13_11" function="internal">
        <lane id=":J13_11_0" index="0" disallow="pedestrian" speed="8.00" length="4.07" shape="-207.20,-1.60 -203.35,-1.05 -203.20,-0.96"/>
    </edge>
    <edge id=":J13_18" function="internal">
        <lane id=":J13_18_0" index="0" disallow="pedestrian" speed="6.51" length="4.28" shape="-202.88,-3.20 -201.95,-4.75 -201.60,-7.20"/>
    </edge>
    <edge id=":J13_19" function="internal">
        <lane id=":J13_19_0" index="0" disallow="pedestrian" speed="8.00" length="10.13" shape="-203.20,-0.96 -200.60,0.60 -198.95,3.35 -198.40,7.20"/>
    </edge>
    <edge id=":J13_c0" function="crossing" crossingEdges="-E12 E12">
        <lane id=":J13_c0_0" index="0" allow="pedestrian" speed="2.78" length="6.40" width="4.00" shape="-196.80,5.20 -203.20,5.20" outlineShape="-196.70,7.20 -203.30,7.20 -207.20,3.20 -207.20,5.20 -205.20,7.20 -203.40,7.20 -207.20,3.20 -192.80,3.20 -194.02,3.31 -195.02,3.64 -195.80,4.20 -196.36,4.98 -196.69,5.98"/>
    </edge>
    <edge id=":J13_c1" function="crossing" crossingEdges="E20 -E20">
        <lane id=":J13_c1_0" index="0" allow="pedestrian" speed="2.78" length="6.40" width="4.00" shape="-194.80,-3.20 -194.80,3.20" outlineShape="-192.80,-3.20 -192.80,3.20 -194.02,3.31 -195.02,3.64 -195.80,4.20 -196.36,4.98 -196.47,5.31 -196.80,3.20 -196.80,-3.20 -196.47,-5.31 -196.36,-4.98 -195.80,-4.20 -195.02,-3.64 -194.02,-3.31"/>
    </edge>
    <edge id=":J13_c2" function="crossing" crossingEdges="E13 -E13">
        <lane id=":J13_c2_0" index="0" allow="pedestrian" speed="2.78" length="6.40" width="4.00" shape="-203.20,-5.20 -196.80,-5.20" outlineShape="-203.30,-7.20 -196.70,-7.20 -192.80,-3.20 -192.80,-5.20 -194.80,-7.20 -196.60,-7.20 -192.80,-3.20 -207.20,-3.20 -205.98,-3.31 -204.98,-3.64 -204.20,-4.20 -203.64,-4.98 -203.31,-5.98"/>
    </edge>
    <edge id=":J13_c3" function="crossing" crossingEdges="E19 -E19">
        <lane id=":J13_c3_0" index="0" allow="pedestrian" speed="2.78" length="6.40" width="4.00" shape="-205.20,3.20 -205.20,-3.20" outlineShape="-207.20,3.20 -207.20,-3.20 -205.98,-3.31 -204.98,-3.64 -204.20,-4.20 -203.64,-4.98 -203.53,-5.31 -203.20,-3.20 -203.20,3.20 -203.53,5.31 -203.64,4.98 -204.20,4.20 -204.98,3.64 -205.98,3.31"/>
    </edge>
    <edge id=":J13_w0" function="walkingarea">
        <lane id=":J13_w0_0" index="0" allow="pedestrian" speed="2.78" length="3.30" width="4.00" shape="-207.20,3.20 -207.20,5.20 -205.20,7.20 -203.20,7.20 -203.31,5.98 -203.64,4.98 -204.20,4.20 -204.98,3.64 -205.98,3.31"/>
    </edge>
    <edge id=":J13_w1" function="walkingarea">
        <lane id=":J13_w1_0" index="0" allow="pedestrian" speed="2.78" length="3.30" width="4.00" shape="-196.80,7.20 -194.80,7.20 -192.80,5.20 -192.80,3.20 -194.02,3.31 -195.02,3.64 -195.80,4.20 -196.36,4.98 -196.69,5.98"/>
    </edge>
    <edge id=":J13_w2" function="walkingarea">
        <lane id=":J13_w2_0" index="0" allow="pedestrian" speed="2.78" length="3.30" width="4.00" shape="-192.80,-3.20 -192.80,-5.20 -194.80,-7.20 -196.80,-7.20 -196.69,-5.98 -196.36,-4.98 -195.80,-4.20 -195.02,-3.64 -194.02,-3.31"/>
    </edge>
    <edge id=":J13_w3" function="walkingarea">
        <lane id=":J13_w3_0" index="0" allow="pedestrian" speed="2.78" length="3.30" width="4.00" shape="-203.20,-7.20 -205.20,-7.20 -207.20,-5.20 -207.20,-3.20 -205.98,-3.31 -204.98,-3.64 -204.20,-4.20 -203.64,-4.98 -203.31,-5.98"/>
    </edge>
    <edge id=":J14_0" function="internal">
        <lane id=":J14_0_0" index="0" disallow="pedestrian" speed="6.51" length="4.75" shape="-201.60,-92.80 -201.95,-95.25 -203.00,-97.00 -203.20,-97.12"/>
    </edge>
    <edge id=":J14_1" function="internal">
        <lane id=":J14_1_0" index="0" disallow="pedestrian" speed="13.89" length="14.40" shape="-201.60,-92.80 -201.60,-107.20"/>
    </edge>
    <edge id=":J14_2" function="internal">
        <lane id=":J14_2_0" index="0" disallow="pedestrian" speed="8.00" length="4.07" shape="-201.60,-92.80 -201.05,-96.65 -200.96,-96.80"/>
    </edge>
    <edge id=":J14_12" function="internal">
        <lane id=":J14_12_0" index="0" disallow="pedestrian" speed="6.51" length="4.28" shape="-203.20,-97.12 -204.75,-98.05 -207.20,-98.40"/>
    </edge>
    <edge id=":J14_13" function="internal">
        <lane id=":J14_13_0" index="0" disallow="pedestrian" speed="8.00" length="10.13" shape="-200.96,-96.80 -199.40,-99.40 -196.65,-101.05 -192.80,-101.60"/>
    </edge>
    <edge id=":J14_3" function="internal">
        <lane id=":J14_3_0" index="0" disallow="pedestrian" speed="6.51" length="4.75" shape="-192.80,-98.40 -195.25,-98.05 -197.00,-97.00 -197.12,-96.80"/>
    </edge>
    <edge id=":J14_4" function="internal">
        <lane id=":J14_4_0" index="0" disallow="pedestrian" speed="13.89" length="14.40" shape="-192.80,-98.40 -207.20,-98.40"/>
    </edge>
    <edge id=":J14_5" function="internal">
        <lane id=":J14_5_0" index="0" disallow="pedestrian" speed="8.00" length="4.07" shape="-192.80,-98.40 -196.65,-98.95 -196.80,-99.04"/>
    </edge>
    <edge id=":J14_14" function="internal">
        <lane id=":J14_14_0" index="0" disallow="pedestrian" speed="6.51" length="4.28" shape="-197.12,-96.80 -198.05,-95.25 -198.40,-92.80"/>
    </edge>
    <edge id=":J14_15" function="internal">
        <lane id=":J14_15_0" index="0" disallow="pedestrian" speed="8.00" length="10.13" shape="-196.80,-99.04 -199.40,-100.60 -201.05,-103.35 -201.60,-107.20"/>
    </edge>
    <edge id=":J14_6" function="internal">
        <lane id=":J14_6_0" index="0" disallow="pedestrian" speed="6.51" length="4.75" shape="-198.40,-107.20 -198.05,-104.75 -197.00,-103.00 -196.80,-102.88"/>
    </edge>
    <edge id=":J14_7" function="internal">
        <lane id=":J14_7_0" index="0" disallow="pedestrian" speed="13.89" length="14.40" shape="-198.40,-107.20 -198.40,-92.80"/>
    </edge>
    <edge id=":J14_8" function="internal">
        <lane id=":J14_8_0" index="0" disallow="pedestrian" speed="8.00" length="4.07" shape="-198.40,-107.20 -198.95,-103.35 -199.04,-103.20"/>
    </edge>
    <edge id=":J14_16" function="internal">
        <lane id=":J14_16_0" index="0" disallow="pedestrian" speed="6.51" length="4.28" shape="-196.80,-102.88 -195.25,-101.95 -192.80,-101.60"/>
    </edge>
    <edge id=":J14_17" function="internal">
        <lane id=":J14_17_0" index="0" disallow="pedestrian" speed="8.00" length="10.13" shape="-199.04,-103.20 -200.60,-100.60 -203.35,-98.95 -207.20,-98.40"/>
    </edge>
    <edge id=":J14_9" function="internal">
        <lane id=":J14_9_0" index="0" disallow="pedestrian" speed="6.51" length="4.75" shape="-207.20,-101.60 -204.75,-101.95 -203.00,-103.00 -202.88,-103.20"/>
    </edge>
    <edge id=":J14_10" function="internal">
        <lane id=":J14_10_0" index="0" disallow="pedestrian" speed="13.89" length="14.40" shape="-207.20,-101.60 -192.80,-101.60"/>
    </edge>
    <edge id=":J14_11" function="internal">
        <lane id=":J14_11_0" index="0" disallow="pedestrian" speed="8.00" length="4.07" shape="-207.20,-101.60 -203.35,-101.05 -203.20,-100.96"/>
    </edge>
    <edge id=":J14_18" function="internal">
        <lane id=":J14_18_0" index="0" disallow="pedestrian" speed="6.51" length="4.28" shape="-202.88,-103.20 -201.95,-104.75 -201.60,-107.20"/>
    </edge>
    <edge id=":J14_19" function="internal">
        <lane id=":J14_19_0" index="0" disallow="pedestrian" speed="8.00" length="10.13" shape="-203.20,-100.96 -200.60,-99.40 -198.95,-96.65 -198.40,-92.80"/>
    </edge>
    <edge id=":J14_c0" function="crossing" crossingEdges="-E13 E13">
        <lane id=":J14_c0_0" index="0" allow="pedestrian" speed="2.78" length="6.40" width="4.00" shape="-196.80,-94.80 -203.20,-94.80" outlineShape="-196.70,-92.80 -203.30,-92.80 -207.20,-96.80 -207.20,-94.80 -205.20,-92.80 -203.20,-92.80 -207.20,-96.80 -192.80,-96.80 -194.02,-96.69 -195.02,-96.36 -195.80,-95.80 -196.36,-95.02 -196.69,-94.02"/>
    </edge>
    <edge id=":J14_c1" function="crossing" crossingEdges="-E22 E22">
        <lane id=":J14_c1_0" index="0" allow="pedestrian" speed="2.78" length="6.40" width="4.00" shape="-194.80,-103.20 -194.80,-96.80" outlineShape="-192.80,-103.30 -192.80,-96.70 -194.02,-96.69 -195.02,-96.36 -195.80,-95.80 -196.36,-95.02 -196.47,-94.69 -196.80,-96.80 -196.80,-103.20 -196.47,-105.31 -196.36,-104.98 -195.80,-104.20 -195.02,-103.64 -194.02,-103.31"/>
    </edge>
    <edge id=":J14_c2" function="crossing" crossingEdges="E14 -E14">
        <lane id=":J14_c2_0" index="0" allow="pedestrian" speed="2.78" length="6.40" width="4.00" shape="-203.20,-105.20 -196.80,-105.20" outlineShape="-203.30,-107.20 -196.70,-107.20 -192.80,-103.20 -192.80,-105.20 -194.80,-107.20 -196.80,-107.20 -192.80,-103.20 -207.20,-103.20 -205.98,-103.31 -204.98,-103.64 -204.20,-104.20 -203.64,-104.98 -203.31,-105.98"/>
    </edge>
    <edge id=":J14_c3" function="crossing" crossingEdges="E23 -E23">
        <lane id=":J14_c3_0" index="0" allow="pedestrian" speed="2.78" length="6.40" width="4.00" shape="-205.20,-96.80 -205.20,-103.20" outlineShape="-207.20,-96.70 -207.20,-103.30 -205.98,-103.31 -204.98,-103.64 -204.20,-104.20 -203.64,-104.98 -203.53,-105.31 -203.20,-103.20 -203.20,-96.80 -203.53,-94.69 -203.64,-95.02 -204.20,-95.80 -204.98,-96.36 -205.98,-96.69"/>
    </edge>
    <edge id=":J14_w0" function="walkingarea">
        <lane id=":J14_w0_0" index="0" allow="pedestrian" speed="2.78" length="3.30" width="4.00" shape="-207.20,-96.80 -207.20,-94.80 -205.20,-92.80 -203.20,-92.80 -203.31,-94.02 -203.64,-95.02 -204.20,-95.80 -204.98,-96.36 -205.98,-96.69"/>
    </edge>
    <edge id=":J14_w1" function="walkingarea">
        <lane id=":J14_w1_0" index="0" allow="pedestrian" speed="2.78" length="3.30" width="4.00" shape="-196.80,-92.80 -194.80,-92.80 -192.80,-94.80 -192.80,-96.80 -194.02,-96.69 -195.02,-96.36 -195.80,-95.80 -196.36,-95.02 -196.69,-94.02"/>
    </edge>
    <edge id=":J14_w2" function="walkingarea">
        <lane id=":J14_w2_0" index="0" allow="pedestrian" speed="2.78" length="3.30" width="4.00" shape="-192.80,-103.20 -192.80,-105.20 -194.80,-107.20 -196.80,-107.20 -196.69,-105.98 -196.36,-104.98 -195.80,-104.20 -195.02,-103.64 -194.02,-103.31"/>
    </edge>
    <edge id=":J14_w3" function="walkingarea">
        <lane id=":J14_w3_0" index="0" allow="pedestrian" speed="2.78" length="3.30" width="4.00" shape="-203.20,-107.20 -205.20,-107.20 -207.20,-105.20 -207.20,-103.20 -205.98,-103.31 -204.98,-103.64 -204.20,-104.20 -203.64,-104.98 -203.31,-105.98"/>
    </edge>
    <edge id=":J15_0" function="internal">
        <lane id=":J15_0_0" index="0" disallow="pedestrian" speed="6.51" length="4.75" shape="-101.60,-92.80 -101.95,-95.25 -103.00,-97.00 -103.20,-97.12"/>
    </edge>
    <edge id=":J15_1" function="internal">
        <lane id=":J15_1_0" index="0" disallow="pedestrian" speed="13.89" length="14.40" shape="-101.60,-92.80 -101.60,-107.20"/>
    </edge>
    <edge id=":J15_2" function="internal">
        <lane id=":J15_2_0" index="0" disallow="pedestrian" speed="8.00" length="4.07" shape="-101.60,-92.80 -101.05,-96.65 -100.96,-96.80"/>
    </edge>
    <edge id=":J15_12" function="internal">
        <lane id=":J15_12_0" index="0" disallow="pedestrian" speed="6.51" length="4.28" shape="-103.20,-97.12 -104.75,-98.05 -107.20,-98.40"/>
    </edge>
    <edge id=":J15_13" function="internal">
        <lane id=":J15_13_0" index="0" disallow="pedestrian" speed="8.00" length="10.13" shape="-100.96,-96.80 -99.40,-99.40 -96.65,-101.05 -92.80,-101.60"/>
    </edge>
    <edge id=":J15_3" function="internal">
        <lane id=":J15_3_0" index="0" disallow="pedestrian" speed="6.51" length="4.75" shape="-92.80,-98.40 -95.25,-98.05 -97.00,-97.00 -97.12,-96.80"/>
    </edge>
    <edge id=":J15_4" function="internal">
        <lane id=":J15_4_0" index="0" disallow="pedestrian" speed="13.89" length="14.40" shape="-92.80,-98.40 -107.20,-98.40"/>
    </edge>
    <edge id=":J15_5" function="internal">
        <lane id=":J15_5_0" index="0" disallow="pedestrian" speed="8.00" length="4.07" shape="-92.80,-98.40 -96.65,-98.95 -96.80,-99.04"/>
    </edge>
    <edge id=":J15_14" function="internal">
        <lane id=":J15_14_0" index="0" disallow="pedestrian" speed="6.51" length="4.28" shape="-97.12,-96.80 -98.05,-95.25 -98.40,-92.80"/>
    </edge>
    <edge id=":J15_15" function="internal">
        <lane id=":J15_15_0" index="0" disallow="pedestrian" speed="8.00" length="10.13" shape="-96.80,-99.04 -99.40,-100.60 -101.05,-103.35 -101.60,-107.20"/>
    </edge>
    <edge id=":J15_6" function="internal">
        <lane id=":J15_6_0" index="0" disallow="pedestrian" speed="6.51" length="4.75" shape="-98.40,-107.20 -98.05,-104.75 -97.00,-103.00 -96.80,-102.88"/>
    </edge>
    <edge id=":J15_7" function="internal">